                                  SEAWAT Version 4
      U.S. GEOLOGICAL SURVEY MODULAR FINITE-DIFFERENCE GROUND-WATER FLOW MODEL
                           VERSION 4.00.05 10/19/2012


 This model run combines GLOBAL and LIST output into this single file.

 GLOBAL LISTING FILE: elder.list
                         UNIT    2

 OPENING elder.dis
 FILE TYPE:DIS   UNIT   11   STATUS:OLD    
 FORMAT:FORMATTED              ACCESS:SEQUENTIAL          

 OPENING elder.bas
 FILE TYPE:BAS6   UNIT   13   STATUS:OLD    
 FORMAT:FORMATTED              ACCESS:SEQUENTIAL          

 OPENING elder.lpf
 FILE TYPE:LPF   UNIT   15   STATUS:OLD    
 FORMAT:FORMATTED              ACCESS:SEQUENTIAL          

 OPENING elder.pcg
 FILE TYPE:PCG   UNIT   27   STATUS:OLD    
 FORMAT:FORMATTED              ACCESS:SEQUENTIAL          

 OPENING elder.oc
 FILE TYPE:OC   UNIT   14   STATUS:OLD    
 FORMAT:FORMATTED              ACCESS:SEQUENTIAL          

 OPENING elder.btn
 FILE TYPE:BTN   UNIT   31   STATUS:OLD    
 FORMAT:FORMATTED              ACCESS:SEQUENTIAL          

 OPENING elder.adv
 FILE TYPE:ADV   UNIT   32   STATUS:OLD    
 FORMAT:FORMATTED              ACCESS:SEQUENTIAL          

 OPENING elder.dsp
 FILE TYPE:DSP   UNIT   33   STATUS:OLD    
 FORMAT:FORMATTED              ACCESS:SEQUENTIAL          

 OPENING elder.gcg
 FILE TYPE:GCG   UNIT   35   STATUS:OLD    
 FORMAT:FORMATTED              ACCESS:SEQUENTIAL          

 OPENING elder.ssm
 FILE TYPE:SSM   UNIT   34   STATUS:OLD    
 FORMAT:FORMATTED              ACCESS:SEQUENTIAL          

 OPENING elder.vdf
 FILE TYPE:VDF   UNIT   37   STATUS:OLD    
 FORMAT:FORMATTED              ACCESS:SEQUENTIAL          

 OPENING elder.cbc
 FILE TYPE:DATA(BINARY)   UNIT   53   STATUS:REPLACE
 FORMAT:BINARY                 ACCESS:SEQUENTIAL          

 OPENING elder.hds
 FILE TYPE:DATA(BINARY)   UNIT   51   STATUS:REPLACE
 FORMAT:BINARY                 ACCESS:SEQUENTIAL          

 THE FREE FORMAT OPTION HAS BEEN SELECTED

 DISCRETIZATION INPUT DATA READ FROM UNIT   11
 # DIS package for  SEAWAT, generated by Flopy.
   31 LAYERS         1 ROWS       120 COLUMNS
    1 STRESS PERIOD(S) IN SIMULATION
 MODEL TIME UNIT IS DAYS
 MODEL LENGTH UNIT IS METERS
  ----- 
 | M T | ## BTN for MT3DMS, generated by Flopy.                                          
 | 3 D | ##                                                                              
  ----- 
 THE TRANSPORT MODEL CONSISTS OF    31 LAYER(S)    1 ROW(S)  120 COLUMN(S)
 NUMBER OF STRESS PERIOD(S) FOR TRANSPORT SIMULATION =    1
 NUMBER OF ALL COMPONENTS INCLUDED IN SIMULATION =    1
 NUMBER OF MOBILE COMPONENTS INCLUDED IN SIMULATION =    1
 UNIT FOR TIME IS D   ;  UNIT FOR LENGTH IS M   ;  UNIT FOR MASS IS KG  
 OPTIONAL PACKAGES INCLUDED IN CURRENT SIMULATION:
  o ADV   ON UNIT 32
  o DSP   ON UNIT 33
  o SSM   ON UNIT 34
  o GCG   ON UNIT 35


 VDF -- VARIABLE DENSITY FLOW, VERSION 1, 2/13/2004
         INPUT READ FROM UNIT 37

 COUPLING BETWEEN FLOW AND TRANSPORT IS EXPLICIT
 VARIABLE-DENSITY WATER-TABLE CORRECTIONS NOT ADDED
 MT3DMS SPECIES USED IN EQUATION OF STATE FOR FLUID DENSITY:         -1
 AN UPSTREAM-WEIGHTED ALGORITHM IS USED TO CALCULATE FLUID DENSITY TERMS THAT CONSERVE MASS
 DENSITY EQUATION OF STATE
 RHO =    1000.000    
  + 0.1000E+00 * ( CONC(   1) -  0.000     )



 FIRSTDT SPECIFIED BY USER IN THE VDF FILE IS:   0.1000000E-02
 THE GROUND-WATER TRANSPORT PROCESS IS INACTIVE

 THE OBSERVATION PROCESS IS INACTIVE
 THE SENSITIVITY PROCESS IS INACTIVE
 THE PARAMETER-ESTIMATION PROCESS IS INACTIVE

 MODE: FORWARD

  Confining bed flag for each layer:
   0   0   0   0   0   0   0   0   0   0   0   0   0   0   0   0   0   0   0   0
   0   0   0   0   0   0   0   0   0   0   0

      33601  ELEMENTS OF GX ARRAY USED OUT OF      33601
       3720  ELEMENTS OF GZ ARRAY USED OUT OF       3720
       3720  ELEMENTS OF IG ARRAY USED OUT OF       3720

                     DELR =   5.00000    

                     DELC =  1.000000    

 TOP ELEVATION OF LAYER 1 =   5.00000    

   MODEL LAYER BOTTOM EL. =   0.00000     FOR LAYER   1

   MODEL LAYER BOTTOM EL. =  -5.00000     FOR LAYER   2

   MODEL LAYER BOTTOM EL. = -10.00000     FOR LAYER   3

   MODEL LAYER BOTTOM EL. =  -15.0000     FOR LAYER   4

   MODEL LAYER BOTTOM EL. =  -20.0000     FOR LAYER   5

   MODEL LAYER BOTTOM EL. =  -25.0000     FOR LAYER   6

   MODEL LAYER BOTTOM EL. =  -30.0000     FOR LAYER   7

   MODEL LAYER BOTTOM EL. =  -35.0000     FOR LAYER   8

   MODEL LAYER BOTTOM EL. =  -40.0000     FOR LAYER   9

   MODEL LAYER BOTTOM EL. =  -45.0000     FOR LAYER  10

   MODEL LAYER BOTTOM EL. =  -50.0000     FOR LAYER  11

   MODEL LAYER BOTTOM EL. =  -55.0000     FOR LAYER  12

   MODEL LAYER BOTTOM EL. =  -60.0000     FOR LAYER  13

   MODEL LAYER BOTTOM EL. =  -65.0000     FOR LAYER  14

   MODEL LAYER BOTTOM EL. =  -70.0000     FOR LAYER  15

   MODEL LAYER BOTTOM EL. =  -75.0000     FOR LAYER  16

   MODEL LAYER BOTTOM EL. =  -80.0000     FOR LAYER  17

   MODEL LAYER BOTTOM EL. =  -85.0000     FOR LAYER  18

   MODEL LAYER BOTTOM EL. =  -90.0000     FOR LAYER  19

   MODEL LAYER BOTTOM EL. =  -95.0000     FOR LAYER  20

   MODEL LAYER BOTTOM EL. = -100.0000     FOR LAYER  21

   MODEL LAYER BOTTOM EL. =  -105.000     FOR LAYER  22

   MODEL LAYER BOTTOM EL. =  -110.000     FOR LAYER  23

   MODEL LAYER BOTTOM EL. =  -115.000     FOR LAYER  24

   MODEL LAYER BOTTOM EL. =  -120.000     FOR LAYER  25

   MODEL LAYER BOTTOM EL. =  -125.000     FOR LAYER  26

   MODEL LAYER BOTTOM EL. =  -130.000     FOR LAYER  27

   MODEL LAYER BOTTOM EL. =  -135.000     FOR LAYER  28

   MODEL LAYER BOTTOM EL. =  -140.000     FOR LAYER  29

   MODEL LAYER BOTTOM EL. =  -145.000     FOR LAYER  30

   MODEL LAYER BOTTOM EL. =  -150.000     FOR LAYER  31


 STRESS PERIOD     LENGTH       TIME STEPS     MULTIPLIER FOR DELT    SS FLAG
 ----------------------------------------------------------------------------
        1         7200.000        720                    1.000         TR

 TRANSIENT SIMULATION




 LPF1 -- LAYER PROPERTY FLOW PACKAGE, VERSION 1, 1/11/2000
         INPUT READ FROM UNIT   15
 # LPF package for  SEAWAT, generated by Flopy.
 CELL-BY-CELL FLOWS WILL BE SAVED ON UNIT   53
 HEAD AT CELLS THAT CONVERT TO DRY= -1.00000E+30
 No named parameters

   LAYER FLAGS:
 LAYER       LAYTYP        LAYAVG         CHANI        LAYVKA        LAYWET
 ---------------------------------------------------------------------------
    1             0             0     1.000E+00             0             0
    2             0             0     1.000E+00             0             0
    3             0             0     1.000E+00             0             0
    4             0             0     1.000E+00             0             0
    5             0             0     1.000E+00             0             0
    6             0             0     1.000E+00             0             0
    7             0             0     1.000E+00             0             0
    8             0             0     1.000E+00             0             0
    9             0             0     1.000E+00             0             0
   10             0             0     1.000E+00             0             0
   11             0             0     1.000E+00             0             0
   12             0             0     1.000E+00             0             0
   13             0             0     1.000E+00             0             0
   14             0             0     1.000E+00             0             0
   15             0             0     1.000E+00             0             0
   16             0             0     1.000E+00             0             0
   17             0             0     1.000E+00             0             0
   18             0             0     1.000E+00             0             0
   19             0             0     1.000E+00             0             0
   20             0             0     1.000E+00             0             0
   21             0             0     1.000E+00             0             0
   22             0             0     1.000E+00             0             0
   23             0             0     1.000E+00             0             0
   24             0             0     1.000E+00             0             0
   25             0             0     1.000E+00             0             0
   26             0             0     1.000E+00             0             0
   27             0             0     1.000E+00             0             0
   28             0             0     1.000E+00             0             0
   29             0             0     1.000E+00             0             0
   30             0             0     1.000E+00             0             0
   31             0             0     1.000E+00             0             0

   INTERPRETATION OF LAYER FLAGS:
                        INTERBLOCK     HORIZONTAL    DATA IN
         LAYER TYPE   TRANSMISSIVITY   ANISOTROPY   ARRAY VKA   WETTABILITY
 LAYER      (LAYTYP)      (LAYAVG)       (CHANI)      (LAYVKA)      (LAYWET)
 ---------------------------------------------------------------------------
    1      CONFINED      HARMONIC     1.000E+00    VERTICAL K  NON-WETTABLE
    2      CONFINED      HARMONIC     1.000E+00    VERTICAL K  NON-WETTABLE
    3      CONFINED      HARMONIC     1.000E+00    VERTICAL K  NON-WETTABLE
    4      CONFINED      HARMONIC     1.000E+00    VERTICAL K  NON-WETTABLE
    5      CONFINED      HARMONIC     1.000E+00    VERTICAL K  NON-WETTABLE
    6      CONFINED      HARMONIC     1.000E+00    VERTICAL K  NON-WETTABLE
    7      CONFINED      HARMONIC     1.000E+00    VERTICAL K  NON-WETTABLE
    8      CONFINED      HARMONIC     1.000E+00    VERTICAL K  NON-WETTABLE
    9      CONFINED      HARMONIC     1.000E+00    VERTICAL K  NON-WETTABLE
   10      CONFINED      HARMONIC     1.000E+00    VERTICAL K  NON-WETTABLE
   11      CONFINED      HARMONIC     1.000E+00    VERTICAL K  NON-WETTABLE
   12      CONFINED      HARMONIC     1.000E+00    VERTICAL K  NON-WETTABLE
   13      CONFINED      HARMONIC     1.000E+00    VERTICAL K  NON-WETTABLE
   14      CONFINED      HARMONIC     1.000E+00    VERTICAL K  NON-WETTABLE
   15      CONFINED      HARMONIC     1.000E+00    VERTICAL K  NON-WETTABLE
   16      CONFINED      HARMONIC     1.000E+00    VERTICAL K  NON-WETTABLE
   17      CONFINED      HARMONIC     1.000E+00    VERTICAL K  NON-WETTABLE
   18      CONFINED      HARMONIC     1.000E+00    VERTICAL K  NON-WETTABLE
   19      CONFINED      HARMONIC     1.000E+00    VERTICAL K  NON-WETTABLE
   20      CONFINED      HARMONIC     1.000E+00    VERTICAL K  NON-WETTABLE
   21      CONFINED      HARMONIC     1.000E+00    VERTICAL K  NON-WETTABLE
   22      CONFINED      HARMONIC     1.000E+00    VERTICAL K  NON-WETTABLE
   23      CONFINED      HARMONIC     1.000E+00    VERTICAL K  NON-WETTABLE
   24      CONFINED      HARMONIC     1.000E+00    VERTICAL K  NON-WETTABLE
   25      CONFINED      HARMONIC     1.000E+00    VERTICAL K  NON-WETTABLE
   26      CONFINED      HARMONIC     1.000E+00    VERTICAL K  NON-WETTABLE
   27      CONFINED      HARMONIC     1.000E+00    VERTICAL K  NON-WETTABLE
   28      CONFINED      HARMONIC     1.000E+00    VERTICAL K  NON-WETTABLE
   29      CONFINED      HARMONIC     1.000E+00    VERTICAL K  NON-WETTABLE
   30      CONFINED      HARMONIC     1.000E+00    VERTICAL K  NON-WETTABLE
   31      CONFINED      HARMONIC     1.000E+00    VERTICAL K  NON-WETTABLE

      11160 ELEMENTS IN X ARRAY ARE USED BY LPF
        186 ELEMENTS IN IX ARRAY ARE USED BY LPF

 PCG2 -- CONJUGATE GRADIENT SOLUTION PACKAGE, VERSION 2.4, 12/29/98
 # PCG package for  SEAWAT, generated by Flopy.
 MAXIMUM OF     50 CALLS OF SOLUTION ROUTINE
 MAXIMUM OF     30 INTERNAL ITERATIONS PER CALL TO SOLUTION ROUTINE
 MATRIX PRECONDITIONING TYPE :    1
      10440 ELEMENTS IN X ARRAY ARE USED BY PCG
      10500 ELEMENTS IN IX ARRAY ARE USED BY PCG
      14880 ELEMENTS IN Z ARRAY ARE USED BY PCG

      21600  ELEMENTS OF X ARRAY USED OUT OF      21600
      14880  ELEMENTS OF Z ARRAY USED OUT OF      14880
      10686  ELEMENTS OF IX ARRAY USED OUT OF      10686
          0  ELEMENTS OF XHS ARRAY USED OUT OF          1



                                    SOLUTION BY THE CONJUGATE-GRADIENT METHOD
                                   -------------------------------------------
                    MAXIMUM NUMBER OF CALLS TO PCG ROUTINE =       50
                        MAXIMUM ITERATIONS PER CALL TO PCG =       30
                               MATRIX PRECONDITIONING TYPE =        1
        RELAXATION FACTOR (ONLY USED WITH PRECOND. TYPE 1) =    0.10000E+01
 PARAMETER OF POLYNOMIAL PRECOND. = 2 (2) OR IS CALCULATED :        0
                         HEAD CHANGE CRITERION FOR CLOSURE =    0.10000E-07
                     RESIDUAL CHANGE CRITERION FOR CLOSURE =    0.10000E-04
            PCG HEAD AND RESIDUAL CHANGE PRINTOUT INTERVAL =      999
     PRINTING FROM SOLVER IS LIMITED(1) OR SUPPRESSED (>1) =        3
                                         DAMPING PARAMETER =    0.10000E+01

 WETTING CAPABILITY IS NOT ACTIVE IN ANY LAYER

    HYD. COND. ALONG ROWS =  10.00000     FOR LAYER   1

      VERTICAL HYD. COND. =  10.00000     FOR LAYER   1

         SPECIFIC STORAGE =  1.000000E-04 FOR LAYER   1

    HYD. COND. ALONG ROWS =  10.00000     FOR LAYER   2

      VERTICAL HYD. COND. =  10.00000     FOR LAYER   2

         SPECIFIC STORAGE =  1.000000E-04 FOR LAYER   2

    HYD. COND. ALONG ROWS =  10.00000     FOR LAYER   3

      VERTICAL HYD. COND. =  10.00000     FOR LAYER   3

         SPECIFIC STORAGE =  1.000000E-04 FOR LAYER   3

    HYD. COND. ALONG ROWS =  10.00000     FOR LAYER   4

      VERTICAL HYD. COND. =  10.00000     FOR LAYER   4

         SPECIFIC STORAGE =  1.000000E-04 FOR LAYER   4

    HYD. COND. ALONG ROWS =  10.00000     FOR LAYER   5

      VERTICAL HYD. COND. =  10.00000     FOR LAYER   5

         SPECIFIC STORAGE =  1.000000E-04 FOR LAYER   5

    HYD. COND. ALONG ROWS =  10.00000     FOR LAYER   6

      VERTICAL HYD. COND. =  10.00000     FOR LAYER   6

         SPECIFIC STORAGE =  1.000000E-04 FOR LAYER   6

    HYD. COND. ALONG ROWS =  10.00000     FOR LAYER   7

      VERTICAL HYD. COND. =  10.00000     FOR LAYER   7

         SPECIFIC STORAGE =  1.000000E-04 FOR LAYER   7

    HYD. COND. ALONG ROWS =  10.00000     FOR LAYER   8

      VERTICAL HYD. COND. =  10.00000     FOR LAYER   8

         SPECIFIC STORAGE =  1.000000E-04 FOR LAYER   8

    HYD. COND. ALONG ROWS =  10.00000     FOR LAYER   9

      VERTICAL HYD. COND. =  10.00000     FOR LAYER   9

         SPECIFIC STORAGE =  1.000000E-04 FOR LAYER   9

    HYD. COND. ALONG ROWS =  10.00000     FOR LAYER  10

      VERTICAL HYD. COND. =  10.00000     FOR LAYER  10

         SPECIFIC STORAGE =  1.000000E-04 FOR LAYER  10

    HYD. COND. ALONG ROWS =  10.00000     FOR LAYER  11

      VERTICAL HYD. COND. =  10.00000     FOR LAYER  11

         SPECIFIC STORAGE =  1.000000E-04 FOR LAYER  11

    HYD. COND. ALONG ROWS =  10.00000     FOR LAYER  12

      VERTICAL HYD. COND. =  10.00000     FOR LAYER  12

         SPECIFIC STORAGE =  1.000000E-04 FOR LAYER  12

    HYD. COND. ALONG ROWS =  10.00000     FOR LAYER  13

      VERTICAL HYD. COND. =  10.00000     FOR LAYER  13

         SPECIFIC STORAGE =  1.000000E-04 FOR LAYER  13

    HYD. COND. ALONG ROWS =  10.00000     FOR LAYER  14

      VERTICAL HYD. COND. =  10.00000     FOR LAYER  14

         SPECIFIC STORAGE =  1.000000E-04 FOR LAYER  14

    HYD. COND. ALONG ROWS =  10.00000     FOR LAYER  15

      VERTICAL HYD. COND. =  10.00000     FOR LAYER  15

         SPECIFIC STORAGE =  1.000000E-04 FOR LAYER  15

    HYD. COND. ALONG ROWS =  10.00000     FOR LAYER  16

      VERTICAL HYD. COND. =  10.00000     FOR LAYER  16

         SPECIFIC STORAGE =  1.000000E-04 FOR LAYER  16

    HYD. COND. ALONG ROWS =  10.00000     FOR LAYER  17

      VERTICAL HYD. COND. =  10.00000     FOR LAYER  17

         SPECIFIC STORAGE =  1.000000E-04 FOR LAYER  17

    HYD. COND. ALONG ROWS =  10.00000     FOR LAYER  18

      VERTICAL HYD. COND. =  10.00000     FOR LAYER  18

         SPECIFIC STORAGE =  1.000000E-04 FOR LAYER  18

    HYD. COND. ALONG ROWS =  10.00000     FOR LAYER  19

      VERTICAL HYD. COND. =  10.00000     FOR LAYER  19

         SPECIFIC STORAGE =  1.000000E-04 FOR LAYER  19

    HYD. COND. ALONG ROWS =  10.00000     FOR LAYER  20

      VERTICAL HYD. COND. =  10.00000     FOR LAYER  20

         SPECIFIC STORAGE =  1.000000E-04 FOR LAYER  20

    HYD. COND. ALONG ROWS =  10.00000     FOR LAYER  21

      VERTICAL HYD. COND. =  10.00000     FOR LAYER  21

         SPECIFIC STORAGE =  1.000000E-04 FOR LAYER  21

    HYD. COND. ALONG ROWS =  10.00000     FOR LAYER  22

      VERTICAL HYD. COND. =  10.00000     FOR LAYER  22

         SPECIFIC STORAGE =  1.000000E-04 FOR LAYER  22

    HYD. COND. ALONG ROWS =  10.00000     FOR LAYER  23

      VERTICAL HYD. COND. =  10.00000     FOR LAYER  23

         SPECIFIC STORAGE =  1.000000E-04 FOR LAYER  23

    HYD. COND. ALONG ROWS =  10.00000     FOR LAYER  24

      VERTICAL HYD. COND. =  10.00000     FOR LAYER  24

         SPECIFIC STORAGE =  1.000000E-04 FOR LAYER  24

    HYD. COND. ALONG ROWS =  10.00000     FOR LAYER  25

      VERTICAL HYD. COND. =  10.00000     FOR LAYER  25

         SPECIFIC STORAGE =  1.000000E-04 FOR LAYER  25

    HYD. COND. ALONG ROWS =  10.00000     FOR LAYER  26

      VERTICAL HYD. COND. =  10.00000     FOR LAYER  26

         SPECIFIC STORAGE =  1.000000E-04 FOR LAYER  26

    HYD. COND. ALONG ROWS =  10.00000     FOR LAYER  27

      VERTICAL HYD. COND. =  10.00000     FOR LAYER  27

         SPECIFIC STORAGE =  1.000000E-04 FOR LAYER  27

    HYD. COND. ALONG ROWS =  10.00000     FOR LAYER  28

      VERTICAL HYD. COND. =  10.00000     FOR LAYER  28

         SPECIFIC STORAGE =  1.000000E-04 FOR LAYER  28

    HYD. COND. ALONG ROWS =  10.00000     FOR LAYER  29

      VERTICAL HYD. COND. =  10.00000     FOR LAYER  29

         SPECIFIC STORAGE =  1.000000E-04 FOR LAYER  29

    HYD. COND. ALONG ROWS =  10.00000     FOR LAYER  30

      VERTICAL HYD. COND. =  10.00000     FOR LAYER  30

         SPECIFIC STORAGE =  1.000000E-04 FOR LAYER  30

    HYD. COND. ALONG ROWS =  10.00000     FOR LAYER  31

      VERTICAL HYD. COND. =  10.00000     FOR LAYER  31

         SPECIFIC STORAGE =  1.000000E-04 FOR LAYER  31
 BTN5 -- BASIC TRANSPORT PACKAGE, VERSION 5, OCTOBER 2006, INPUT READ FROM UNIT 31
      56162 ELEMENTS OF THE  X ARRAY USED BY THE BTN PACKAGE
       3751 ELEMENTS OF THE IX ARRAY USED BY THE BTN PACKAGE

 FLOW MODEL IS TRANSIENT

 ADV5 -- ADVECTION PACKAGE, VERSION 5, FEBRUARY 2005, INPUT READ FROM UNIT 32
 ADVECTION IS SOLVED WITH THE ULTIMATE SCHEME
 COURANT NUMBER ALLOWED IN SOLVING THE ADVECTION TERM = 0.750    
          0 ELEMENTS OF THE  X ARRAY USED BY THE ADV PACKAGE
          0 ELEMENTS OF THE IX ARRAY USED BY THE ADV PACKAGE

 DSP5 -- DISPERSION PACKAGE, VERSION 5, OCTOBER 2006, INPUT READ FROM UNIT 33
      40982 ELEMENTS OF THE  X ARRAY USED BY THE DSP PACKAGE
          0 ELEMENTS OF THE IX ARRAY USED BY THE DSP PACKAGE

 SSM5 -- SINK & SOURCE MIXING PACKAGE, VERSION 5, OCTOBER 2006, INPUT READ FROM UNIT 34
 HEADER LINE OF THE SSM PACKAGE INPUT FILE:
  F F F F F F F F F F F F F F F F                                                                                                                                                                        
 MAJOR STRESS COMPONENTS PRESENT IN THE FLOW MODEL:
 MAXIMUM NUMBER OF POINT SINKS/SOURCES =      62
        806 ELEMENTS OF THE  X ARRAY USED BY THE SSM PACKAGE
          0 ELEMENTS OF THE IX ARRAY BY THE SSM PACKAGE

 GCG5 -- GENERALIZED CONJUGATE GRADIENT SOLVER PACKAGE, VERSION 5, FEBRUARY 2005 INPUT READ FROM UNIT 35
 MAXIMUM OF    1 OUTER ITERATIONS
        AND 5000 INNER ITERATIONS ALLOWED FOR CLOSURE
 THE PRECONDITIONING TYPE SELECTED IS JACOBI.
 DISPERSION CROSS TERMS LUMPED INTO RIGHT-HAND-SIDE
      60800 ELEMENTS OF THE  X ARRAY USED BY THE GCG PACKAGE
      15000 ELEMENTS OF THE IX ARRAY USED BY THE GCG PACKAGE

 
 # BAS6 package for  SEAWAT, generated by Flopy.                                 
 THE FREE FORMAT OPTION HAS BEEN SELECTED
   31 LAYERS         1 ROWS       120 COLUMNS
    1 STRESS PERIOD(S) IN SIMULATION

 BAS6 -- BASIC PACKAGE, VERSION 6, 1/11/2000 INPUT READ FROM UNIT   13
        155 ELEMENTS IN IR ARRAY ARE USED BY BAS

          0  ELEMENTS OF RX ARRAY USED OUT OF          1
          0  ELEMENTS OF RZ ARRAY USED OUT OF          1
        155  ELEMENTS OF IR ARRAY USED OUT OF        155
1
 # BAS6 package for  SEAWAT, generated by Flopy.                                 
                                                                                 



                     BOUNDARY ARRAY FOR LAYER   1
 READING ON UNIT   13 WITH FORMAT:            (120I10) 



                     BOUNDARY ARRAY FOR LAYER   2
 READING ON UNIT   13 WITH FORMAT:            (120I10) 



                     BOUNDARY ARRAY FOR LAYER   3
 READING ON UNIT   13 WITH FORMAT:            (120I10) 



                     BOUNDARY ARRAY FOR LAYER   4
 READING ON UNIT   13 WITH FORMAT:            (120I10) 



                     BOUNDARY ARRAY FOR LAYER   5
 READING ON UNIT   13 WITH FORMAT:            (120I10) 



                     BOUNDARY ARRAY FOR LAYER   6
 READING ON UNIT   13 WITH FORMAT:            (120I10) 



                     BOUNDARY ARRAY FOR LAYER   7
 READING ON UNIT   13 WITH FORMAT:            (120I10) 



                     BOUNDARY ARRAY FOR LAYER   8
 READING ON UNIT   13 WITH FORMAT:            (120I10) 



                     BOUNDARY ARRAY FOR LAYER   9
 READING ON UNIT   13 WITH FORMAT:            (120I10) 



                     BOUNDARY ARRAY FOR LAYER  10
 READING ON UNIT   13 WITH FORMAT:            (120I10) 



                     BOUNDARY ARRAY FOR LAYER  11
 READING ON UNIT   13 WITH FORMAT:            (120I10) 



                     BOUNDARY ARRAY FOR LAYER  12
 READING ON UNIT   13 WITH FORMAT:            (120I10) 



                     BOUNDARY ARRAY FOR LAYER  13
 READING ON UNIT   13 WITH FORMAT:            (120I10) 



                     BOUNDARY ARRAY FOR LAYER  14
 READING ON UNIT   13 WITH FORMAT:            (120I10) 



                     BOUNDARY ARRAY FOR LAYER  15
 READING ON UNIT   13 WITH FORMAT:            (120I10) 



                     BOUNDARY ARRAY FOR LAYER  16
 READING ON UNIT   13 WITH FORMAT:            (120I10) 



                     BOUNDARY ARRAY FOR LAYER  17
 READING ON UNIT   13 WITH FORMAT:            (120I10) 



                     BOUNDARY ARRAY FOR LAYER  18
 READING ON UNIT   13 WITH FORMAT:            (120I10) 



                     BOUNDARY ARRAY FOR LAYER  19
 READING ON UNIT   13 WITH FORMAT:            (120I10) 



                     BOUNDARY ARRAY FOR LAYER  20
 READING ON UNIT   13 WITH FORMAT:            (120I10) 



                     BOUNDARY ARRAY FOR LAYER  21
 READING ON UNIT   13 WITH FORMAT:            (120I10) 



                     BOUNDARY ARRAY FOR LAYER  22
 READING ON UNIT   13 WITH FORMAT:            (120I10) 



                     BOUNDARY ARRAY FOR LAYER  23
 READING ON UNIT   13 WITH FORMAT:            (120I10) 



                     BOUNDARY ARRAY FOR LAYER  24
 READING ON UNIT   13 WITH FORMAT:            (120I10) 



                     BOUNDARY ARRAY FOR LAYER  25
 READING ON UNIT   13 WITH FORMAT:            (120I10) 



                     BOUNDARY ARRAY FOR LAYER  26
 READING ON UNIT   13 WITH FORMAT:            (120I10) 



                     BOUNDARY ARRAY FOR LAYER  27
 READING ON UNIT   13 WITH FORMAT:            (120I10) 



                     BOUNDARY ARRAY FOR LAYER  28
 READING ON UNIT   13 WITH FORMAT:            (120I10) 



                     BOUNDARY ARRAY FOR LAYER  29
 READING ON UNIT   13 WITH FORMAT:            (120I10) 



                     BOUNDARY ARRAY FOR LAYER  30
 READING ON UNIT   13 WITH FORMAT:            (120I10) 



                     BOUNDARY ARRAY FOR LAYER  31
 READING ON UNIT   13 WITH FORMAT:            (120I10) 

 AQUIFER HEAD WILL BE SET TO -999.99     AT ALL NO-FLOW NODES (IBOUND=0).



                       INITIAL HEAD FOR LAYER   1
 READING ON UNIT   13 WITH FORMAT:          (120E15.6) 



                       INITIAL HEAD FOR LAYER   2
 READING ON UNIT   13 WITH FORMAT:          (120E15.6) 



                       INITIAL HEAD FOR LAYER   3
 READING ON UNIT   13 WITH FORMAT:          (120E15.6) 



                       INITIAL HEAD FOR LAYER   4
 READING ON UNIT   13 WITH FORMAT:          (120E15.6) 



                       INITIAL HEAD FOR LAYER   5
 READING ON UNIT   13 WITH FORMAT:          (120E15.6) 



                       INITIAL HEAD FOR LAYER   6
 READING ON UNIT   13 WITH FORMAT:          (120E15.6) 



                       INITIAL HEAD FOR LAYER   7
 READING ON UNIT   13 WITH FORMAT:          (120E15.6) 



                       INITIAL HEAD FOR LAYER   8
 READING ON UNIT   13 WITH FORMAT:          (120E15.6) 



                       INITIAL HEAD FOR LAYER   9
 READING ON UNIT   13 WITH FORMAT:          (120E15.6) 



                       INITIAL HEAD FOR LAYER  10
 READING ON UNIT   13 WITH FORMAT:          (120E15.6) 



                       INITIAL HEAD FOR LAYER  11
 READING ON UNIT   13 WITH FORMAT:          (120E15.6) 



                       INITIAL HEAD FOR LAYER  12
 READING ON UNIT   13 WITH FORMAT:          (120E15.6) 



                       INITIAL HEAD FOR LAYER  13
 READING ON UNIT   13 WITH FORMAT:          (120E15.6) 



                       INITIAL HEAD FOR LAYER  14
 READING ON UNIT   13 WITH FORMAT:          (120E15.6) 



                       INITIAL HEAD FOR LAYER  15
 READING ON UNIT   13 WITH FORMAT:          (120E15.6) 



                       INITIAL HEAD FOR LAYER  16
 READING ON UNIT   13 WITH FORMAT:          (120E15.6) 



                       INITIAL HEAD FOR LAYER  17
 READING ON UNIT   13 WITH FORMAT:          (120E15.6) 



                       INITIAL HEAD FOR LAYER  18
 READING ON UNIT   13 WITH FORMAT:          (120E15.6) 



                       INITIAL HEAD FOR LAYER  19
 READING ON UNIT   13 WITH FORMAT:          (120E15.6) 



                       INITIAL HEAD FOR LAYER  20
 READING ON UNIT   13 WITH FORMAT:          (120E15.6) 



                       INITIAL HEAD FOR LAYER  21
 READING ON UNIT   13 WITH FORMAT:          (120E15.6) 



                       INITIAL HEAD FOR LAYER  22
 READING ON UNIT   13 WITH FORMAT:          (120E15.6) 



                       INITIAL HEAD FOR LAYER  23
 READING ON UNIT   13 WITH FORMAT:          (120E15.6) 



                       INITIAL HEAD FOR LAYER  24
 READING ON UNIT   13 WITH FORMAT:          (120E15.6) 



                       INITIAL HEAD FOR LAYER  25
 READING ON UNIT   13 WITH FORMAT:          (120E15.6) 



                       INITIAL HEAD FOR LAYER  26
 READING ON UNIT   13 WITH FORMAT:          (120E15.6) 



                       INITIAL HEAD FOR LAYER  27
 READING ON UNIT   13 WITH FORMAT:          (120E15.6) 



                       INITIAL HEAD FOR LAYER  28
 READING ON UNIT   13 WITH FORMAT:          (120E15.6) 



                       INITIAL HEAD FOR LAYER  29
 READING ON UNIT   13 WITH FORMAT:          (120E15.6) 



                       INITIAL HEAD FOR LAYER  30
 READING ON UNIT   13 WITH FORMAT:          (120E15.6) 



                       INITIAL HEAD FOR LAYER  31
 READING ON UNIT   13 WITH FORMAT:          (120E15.6) 
 # OC package for  SEAWAT, generated by Flopy.

 OUTPUT CONTROL IS SPECIFIED ONLY AT TIME STEPS FOR WHICH OUTPUT IS DESIRED
 COMPACT CELL-BY-CELL BUDGET FILES WILL BE WRITTEN
 AUXILIARY DATA WILL BE SAVED IN CELL-BY-CELL BUDGET FILES
 HEAD PRINT FORMAT CODE IS   0    DRAWDOWN PRINT FORMAT CODE IS   0
 HEADS WILL BE SAVED ON UNIT   51    DRAWDOWNS WILL BE SAVED ON UNIT    0
 LAYER NUMBER  AQUIFER TYPE
 ------------  ------------
       1            0
       2            0
       3            0
       4            0
       5            0
       6            0
       7            0
       8            0
       9            0
      10            0
      11            0
      12            0
      13            0
      14            0
      15            0
      16            0
      17            0
      18            0
      19            0
      20            0
      21            0
      22            0
      23            0
      24            0
      25            0
      26            0
      27            0
      28            0
      29            0
      30            0
      31            0
                                       WIDTH ALONG ROWS (DELR)  =   5.000000    
                                       WIDTH ALONG COLS (DELC)  =  1.0000000    
                                       TOP ELEV. OF 1ST LAYER   =   5.000000    
                                       CELL THICKNESS (DZ)      =   5.000000     FOR LAYER  1
                                       CELL THICKNESS (DZ)      =   5.000000     FOR LAYER  2
                                       CELL THICKNESS (DZ)      =   5.000000     FOR LAYER  3
                                       CELL THICKNESS (DZ)      =   5.000000     FOR LAYER  4
                                       CELL THICKNESS (DZ)      =   5.000000     FOR LAYER  5
                                       CELL THICKNESS (DZ)      =   5.000000     FOR LAYER  6
                                       CELL THICKNESS (DZ)      =   5.000000     FOR LAYER  7
                                       CELL THICKNESS (DZ)      =   5.000000     FOR LAYER  8
                                       CELL THICKNESS (DZ)      =   5.000000     FOR LAYER  9
                                       CELL THICKNESS (DZ)      =   5.000000     FOR LAYER 10
                                       CELL THICKNESS (DZ)      =   5.000000     FOR LAYER 11
                                       CELL THICKNESS (DZ)      =   5.000000     FOR LAYER 12
                                       CELL THICKNESS (DZ)      =   5.000000     FOR LAYER 13
                                       CELL THICKNESS (DZ)      =   5.000000     FOR LAYER 14
                                       CELL THICKNESS (DZ)      =   5.000000     FOR LAYER 15
                                       CELL THICKNESS (DZ)      =   5.000000     FOR LAYER 16
                                       CELL THICKNESS (DZ)      =   5.000000     FOR LAYER 17
                                       CELL THICKNESS (DZ)      =   5.000000     FOR LAYER 18
                                       CELL THICKNESS (DZ)      =   5.000000     FOR LAYER 19
                                       CELL THICKNESS (DZ)      =   5.000000     FOR LAYER 20
                                       CELL THICKNESS (DZ)      =   5.000000     FOR LAYER 21
                                       CELL THICKNESS (DZ)      =   5.000000     FOR LAYER 22
                                       CELL THICKNESS (DZ)      =   5.000000     FOR LAYER 23
                                       CELL THICKNESS (DZ)      =   5.000000     FOR LAYER 24
                                       CELL THICKNESS (DZ)      =   5.000000     FOR LAYER 25
                                       CELL THICKNESS (DZ)      =   5.000000     FOR LAYER 26
                                       CELL THICKNESS (DZ)      =   5.000000     FOR LAYER 27
                                       CELL THICKNESS (DZ)      =   5.000000     FOR LAYER 28
                                       CELL THICKNESS (DZ)      =   5.000000     FOR LAYER 29
                                       CELL THICKNESS (DZ)      =   5.000000     FOR LAYER 30
                                       CELL THICKNESS (DZ)      =   5.000000     FOR LAYER 31
                                       POROSITY                 =  0.1000000E+00 FOR LAYER  1
                                       POROSITY                 =  0.1000000E+00 FOR LAYER  2
                                       POROSITY                 =  0.1000000E+00 FOR LAYER  3
                                       POROSITY                 =  0.1000000E+00 FOR LAYER  4
                                       POROSITY                 =  0.1000000E+00 FOR LAYER  5
                                       POROSITY                 =  0.1000000E+00 FOR LAYER  6
                                       POROSITY                 =  0.1000000E+00 FOR LAYER  7
                                       POROSITY                 =  0.1000000E+00 FOR LAYER  8
                                       POROSITY                 =  0.1000000E+00 FOR LAYER  9
                                       POROSITY                 =  0.1000000E+00 FOR LAYER 10
                                       POROSITY                 =  0.1000000E+00 FOR LAYER 11
                                       POROSITY                 =  0.1000000E+00 FOR LAYER 12
                                       POROSITY                 =  0.1000000E+00 FOR LAYER 13
                                       POROSITY                 =  0.1000000E+00 FOR LAYER 14
                                       POROSITY                 =  0.1000000E+00 FOR LAYER 15
                                       POROSITY                 =  0.1000000E+00 FOR LAYER 16
                                       POROSITY                 =  0.1000000E+00 FOR LAYER 17
                                       POROSITY                 =  0.1000000E+00 FOR LAYER 18
                                       POROSITY                 =  0.1000000E+00 FOR LAYER 19
                                       POROSITY                 =  0.1000000E+00 FOR LAYER 20
                                       POROSITY                 =  0.1000000E+00 FOR LAYER 21
                                       POROSITY                 =  0.1000000E+00 FOR LAYER 22
                                       POROSITY                 =  0.1000000E+00 FOR LAYER 23
                                       POROSITY                 =  0.1000000E+00 FOR LAYER 24
                                       POROSITY                 =  0.1000000E+00 FOR LAYER 25
                                       POROSITY                 =  0.1000000E+00 FOR LAYER 26
                                       POROSITY                 =  0.1000000E+00 FOR LAYER 27
                                       POROSITY                 =  0.1000000E+00 FOR LAYER 28
                                       POROSITY                 =  0.1000000E+00 FOR LAYER 29
                                       POROSITY                 =  0.1000000E+00 FOR LAYER 30
                                       POROSITY                 =  0.1000000E+00 FOR LAYER 31

                     CONCN. BOUNDARY ARRAY    FOR LAYER  1 READ ON UNIT 31 USING FORMAT: "           (120I10) "
                     ------------------------------------------------------------------------------------------

                     CONCN. BOUNDARY ARRAY    FOR LAYER  2 READ ON UNIT 31 USING FORMAT: "           (120I10) "
                     ------------------------------------------------------------------------------------------

                     CONCN. BOUNDARY ARRAY    FOR LAYER  3 READ ON UNIT 31 USING FORMAT: "           (120I10) "
                     ------------------------------------------------------------------------------------------

                     CONCN. BOUNDARY ARRAY    FOR LAYER  4 READ ON UNIT 31 USING FORMAT: "           (120I10) "
                     ------------------------------------------------------------------------------------------

                     CONCN. BOUNDARY ARRAY    FOR LAYER  5 READ ON UNIT 31 USING FORMAT: "           (120I10) "
                     ------------------------------------------------------------------------------------------

                     CONCN. BOUNDARY ARRAY    FOR LAYER  6 READ ON UNIT 31 USING FORMAT: "           (120I10) "
                     ------------------------------------------------------------------------------------------

                     CONCN. BOUNDARY ARRAY    FOR LAYER  7 READ ON UNIT 31 USING FORMAT: "           (120I10) "
                     ------------------------------------------------------------------------------------------

                     CONCN. BOUNDARY ARRAY    FOR LAYER  8 READ ON UNIT 31 USING FORMAT: "           (120I10) "
                     ------------------------------------------------------------------------------------------

                     CONCN. BOUNDARY ARRAY    FOR LAYER  9 READ ON UNIT 31 USING FORMAT: "           (120I10) "
                     ------------------------------------------------------------------------------------------

                     CONCN. BOUNDARY ARRAY    FOR LAYER 10 READ ON UNIT 31 USING FORMAT: "           (120I10) "
                     ------------------------------------------------------------------------------------------

                     CONCN. BOUNDARY ARRAY    FOR LAYER 11 READ ON UNIT 31 USING FORMAT: "           (120I10) "
                     ------------------------------------------------------------------------------------------

                     CONCN. BOUNDARY ARRAY    FOR LAYER 12 READ ON UNIT 31 USING FORMAT: "           (120I10) "
                     ------------------------------------------------------------------------------------------

                     CONCN. BOUNDARY ARRAY    FOR LAYER 13 READ ON UNIT 31 USING FORMAT: "           (120I10) "
                     ------------------------------------------------------------------------------------------

                     CONCN. BOUNDARY ARRAY    FOR LAYER 14 READ ON UNIT 31 USING FORMAT: "           (120I10) "
                     ------------------------------------------------------------------------------------------

                     CONCN. BOUNDARY ARRAY    FOR LAYER 15 READ ON UNIT 31 USING FORMAT: "           (120I10) "
                     ------------------------------------------------------------------------------------------

                     CONCN. BOUNDARY ARRAY    FOR LAYER 16 READ ON UNIT 31 USING FORMAT: "           (120I10) "
                     ------------------------------------------------------------------------------------------

                     CONCN. BOUNDARY ARRAY    FOR LAYER 17 READ ON UNIT 31 USING FORMAT: "           (120I10) "
                     ------------------------------------------------------------------------------------------

                     CONCN. BOUNDARY ARRAY    FOR LAYER 18 READ ON UNIT 31 USING FORMAT: "           (120I10) "
                     ------------------------------------------------------------------------------------------

                     CONCN. BOUNDARY ARRAY    FOR LAYER 19 READ ON UNIT 31 USING FORMAT: "           (120I10) "
                     ------------------------------------------------------------------------------------------

                     CONCN. BOUNDARY ARRAY    FOR LAYER 20 READ ON UNIT 31 USING FORMAT: "           (120I10) "
                     ------------------------------------------------------------------------------------------

                     CONCN. BOUNDARY ARRAY    FOR LAYER 21 READ ON UNIT 31 USING FORMAT: "           (120I10) "
                     ------------------------------------------------------------------------------------------

                     CONCN. BOUNDARY ARRAY    FOR LAYER 22 READ ON UNIT 31 USING FORMAT: "           (120I10) "
                     ------------------------------------------------------------------------------------------

                     CONCN. BOUNDARY ARRAY    FOR LAYER 23 READ ON UNIT 31 USING FORMAT: "           (120I10) "
                     ------------------------------------------------------------------------------------------

                     CONCN. BOUNDARY ARRAY    FOR LAYER 24 READ ON UNIT 31 USING FORMAT: "           (120I10) "
                     ------------------------------------------------------------------------------------------

                     CONCN. BOUNDARY ARRAY    FOR LAYER 25 READ ON UNIT 31 USING FORMAT: "           (120I10) "
                     ------------------------------------------------------------------------------------------

                     CONCN. BOUNDARY ARRAY    FOR LAYER 26 READ ON UNIT 31 USING FORMAT: "           (120I10) "
                     ------------------------------------------------------------------------------------------

                     CONCN. BOUNDARY ARRAY    FOR LAYER 27 READ ON UNIT 31 USING FORMAT: "           (120I10) "
                     ------------------------------------------------------------------------------------------

                     CONCN. BOUNDARY ARRAY    FOR LAYER 28 READ ON UNIT 31 USING FORMAT: "           (120I10) "
                     ------------------------------------------------------------------------------------------

                     CONCN. BOUNDARY ARRAY    FOR LAYER 29 READ ON UNIT 31 USING FORMAT: "           (120I10) "
                     ------------------------------------------------------------------------------------------

                     CONCN. BOUNDARY ARRAY    FOR LAYER 30 READ ON UNIT 31 USING FORMAT: "           (120I10) "
                     ------------------------------------------------------------------------------------------

                     CONCN. BOUNDARY ARRAY    FOR LAYER 31 READ ON UNIT 31 USING FORMAT: "           (120I10) "
                     ------------------------------------------------------------------------------------------

                     INITIAL CONC.: COMP.  01 FOR LAYER  1 READ ON UNIT 31 USING FORMAT: "         (120E15.6) "
                     ------------------------------------------------------------------------------------------

                     INITIAL CONC.: COMP.  01 FOR LAYER  2 READ ON UNIT 31 USING FORMAT: "         (120E15.6) "
                     ------------------------------------------------------------------------------------------

                     INITIAL CONC.: COMP.  01 FOR LAYER  3 READ ON UNIT 31 USING FORMAT: "         (120E15.6) "
                     ------------------------------------------------------------------------------------------

                     INITIAL CONC.: COMP.  01 FOR LAYER  4 READ ON UNIT 31 USING FORMAT: "         (120E15.6) "
                     ------------------------------------------------------------------------------------------

                     INITIAL CONC.: COMP.  01 FOR LAYER  5 READ ON UNIT 31 USING FORMAT: "         (120E15.6) "
                     ------------------------------------------------------------------------------------------

                     INITIAL CONC.: COMP.  01 FOR LAYER  6 READ ON UNIT 31 USING FORMAT: "         (120E15.6) "
                     ------------------------------------------------------------------------------------------

                     INITIAL CONC.: COMP.  01 FOR LAYER  7 READ ON UNIT 31 USING FORMAT: "         (120E15.6) "
                     ------------------------------------------------------------------------------------------

                     INITIAL CONC.: COMP.  01 FOR LAYER  8 READ ON UNIT 31 USING FORMAT: "         (120E15.6) "
                     ------------------------------------------------------------------------------------------

                     INITIAL CONC.: COMP.  01 FOR LAYER  9 READ ON UNIT 31 USING FORMAT: "         (120E15.6) "
                     ------------------------------------------------------------------------------------------

                     INITIAL CONC.: COMP.  01 FOR LAYER 10 READ ON UNIT 31 USING FORMAT: "         (120E15.6) "
                     ------------------------------------------------------------------------------------------

                     INITIAL CONC.: COMP.  01 FOR LAYER 11 READ ON UNIT 31 USING FORMAT: "         (120E15.6) "
                     ------------------------------------------------------------------------------------------

                     INITIAL CONC.: COMP.  01 FOR LAYER 12 READ ON UNIT 31 USING FORMAT: "         (120E15.6) "
                     ------------------------------------------------------------------------------------------

                     INITIAL CONC.: COMP.  01 FOR LAYER 13 READ ON UNIT 31 USING FORMAT: "         (120E15.6) "
                     ------------------------------------------------------------------------------------------

                     INITIAL CONC.: COMP.  01 FOR LAYER 14 READ ON UNIT 31 USING FORMAT: "         (120E15.6) "
                     ------------------------------------------------------------------------------------------

                     INITIAL CONC.: COMP.  01 FOR LAYER 15 READ ON UNIT 31 USING FORMAT: "         (120E15.6) "
                     ------------------------------------------------------------------------------------------

                     INITIAL CONC.: COMP.  01 FOR LAYER 16 READ ON UNIT 31 USING FORMAT: "         (120E15.6) "
                     ------------------------------------------------------------------------------------------

                     INITIAL CONC.: COMP.  01 FOR LAYER 17 READ ON UNIT 31 USING FORMAT: "         (120E15.6) "
                     ------------------------------------------------------------------------------------------

                     INITIAL CONC.: COMP.  01 FOR LAYER 18 READ ON UNIT 31 USING FORMAT: "         (120E15.6) "
                     ------------------------------------------------------------------------------------------

                     INITIAL CONC.: COMP.  01 FOR LAYER 19 READ ON UNIT 31 USING FORMAT: "         (120E15.6) "
                     ------------------------------------------------------------------------------------------

                     INITIAL CONC.: COMP.  01 FOR LAYER 20 READ ON UNIT 31 USING FORMAT: "         (120E15.6) "
                     ------------------------------------------------------------------------------------------

                     INITIAL CONC.: COMP.  01 FOR LAYER 21 READ ON UNIT 31 USING FORMAT: "         (120E15.6) "
                     ------------------------------------------------------------------------------------------

                     INITIAL CONC.: COMP.  01 FOR LAYER 22 READ ON UNIT 31 USING FORMAT: "         (120E15.6) "
                     ------------------------------------------------------------------------------------------

                     INITIAL CONC.: COMP.  01 FOR LAYER 23 READ ON UNIT 31 USING FORMAT: "         (120E15.6) "
                     ------------------------------------------------------------------------------------------

                     INITIAL CONC.: COMP.  01 FOR LAYER 24 READ ON UNIT 31 USING FORMAT: "         (120E15.6) "
                     ------------------------------------------------------------------------------------------

                     INITIAL CONC.: COMP.  01 FOR LAYER 25 READ ON UNIT 31 USING FORMAT: "         (120E15.6) "
                     ------------------------------------------------------------------------------------------

                     INITIAL CONC.: COMP.  01 FOR LAYER 26 READ ON UNIT 31 USING FORMAT: "         (120E15.6) "
                     ------------------------------------------------------------------------------------------

                     INITIAL CONC.: COMP.  01 FOR LAYER 27 READ ON UNIT 31 USING FORMAT: "         (120E15.6) "
                     ------------------------------------------------------------------------------------------

                     INITIAL CONC.: COMP.  01 FOR LAYER 28 READ ON UNIT 31 USING FORMAT: "         (120E15.6) "
                     ------------------------------------------------------------------------------------------

                     INITIAL CONC.: COMP.  01 FOR LAYER 29 READ ON UNIT 31 USING FORMAT: "         (120E15.6) "
                     ------------------------------------------------------------------------------------------

                     INITIAL CONC.: COMP.  01 FOR LAYER 30 READ ON UNIT 31 USING FORMAT: "         (120E15.6) "
                     ------------------------------------------------------------------------------------------

                     INITIAL CONC.: COMP.  01 FOR LAYER 31 READ ON UNIT 31 USING FORMAT: "         (120E15.6) "
                     ------------------------------------------------------------------------------------------

 VALUE INDICATING INACTIVE CONCENTRATION CELLS =   0.1000000E+31
 MINIMUM SATURATED THICKNESS [THKMIN] ALLOWED =  0.0100 OF TOTAL CELL THICKNESS


 OUTPUT CONTROL OPTIONS
 ----------------------

 DO NOT PRINT CELL CONCENTRATION
 DO NOT PRINT PARTICLE NUMBER IN EACH CELL
 DO NOT PRINT RETARDATION FACTOR
 DO NOT PRINT DISPERSION COEFFICIENT
 SAVE DISSOLVED PHASE CONCENTRATIONS IN UNFORMATTED FILES [MT3Dnnn.UCN]
  FOR EACH SPECIES ON UNITS 201 AND ABOVE

 NUMBER OF TIMES AT WHICH SIMULATION RESULTS ARE SAVED =   30
 TOTAL ELAPSED TIMES AT WHICH SIMULATION RESULTS ARE SAVED: 
    30.000       277.24       524.48       771.72       1019.0       1266.2       1513.4       1760.7    
    2007.9       2255.2       2502.4       2749.7       2996.9       3244.1       3491.4       3738.6    
    3985.9       4233.1       4480.3       4727.6       4974.8       5222.1       5469.3       5716.6    
    5963.8       6211.0       6458.3       6705.5       6952.8       7200.0    

 NUMBER OF OBSERVATION POINTS =    0

 SAVE ONE-LINE SUMMARY OF MASS BUDGETS IN FILES [MT3Dnnn.MAS]
  FOR EACH SPECIES ON UNITS 601 AND ABOVE, EVERY  1 TRANSPORT STEPS

 MAXIMUM LENGTH ALONG THE X (J) AXIS =   600.0000    
 MAXIMUM LENGTH ALONG THE Y (I) AXIS =  1.0000000    
 MAXIMUM LENGTH ALONG THE Z (K) AXIS =   155.0000    


 ADVECTION SOLUTION OPTIONS
 --------------------------

 ADVECTION IS SOLVED WITH THE ULTIMATE SCHEME
 COURANT NUMBER ALLOWED IN SOLVING THE ADVECTION TERM = 0.750    


 DISPERSION INPUT PARAMETERS
 ---------------------------

                                       LONG. DISPERSIVITY (AL)  =   0.000000     FOR LAYER  1
                                       LONG. DISPERSIVITY (AL)  =   0.000000     FOR LAYER  2
                                       LONG. DISPERSIVITY (AL)  =   0.000000     FOR LAYER  3
                                       LONG. DISPERSIVITY (AL)  =   0.000000     FOR LAYER  4
                                       LONG. DISPERSIVITY (AL)  =   0.000000     FOR LAYER  5
                                       LONG. DISPERSIVITY (AL)  =   0.000000     FOR LAYER  6
                                       LONG. DISPERSIVITY (AL)  =   0.000000     FOR LAYER  7
                                       LONG. DISPERSIVITY (AL)  =   0.000000     FOR LAYER  8
                                       LONG. DISPERSIVITY (AL)  =   0.000000     FOR LAYER  9
                                       LONG. DISPERSIVITY (AL)  =   0.000000     FOR LAYER 10
                                       LONG. DISPERSIVITY (AL)  =   0.000000     FOR LAYER 11
                                       LONG. DISPERSIVITY (AL)  =   0.000000     FOR LAYER 12
                                       LONG. DISPERSIVITY (AL)  =   0.000000     FOR LAYER 13
                                       LONG. DISPERSIVITY (AL)  =   0.000000     FOR LAYER 14
                                       LONG. DISPERSIVITY (AL)  =   0.000000     FOR LAYER 15
                                       LONG. DISPERSIVITY (AL)  =   0.000000     FOR LAYER 16
                                       LONG. DISPERSIVITY (AL)  =   0.000000     FOR LAYER 17
                                       LONG. DISPERSIVITY (AL)  =   0.000000     FOR LAYER 18
                                       LONG. DISPERSIVITY (AL)  =   0.000000     FOR LAYER 19
                                       LONG. DISPERSIVITY (AL)  =   0.000000     FOR LAYER 20
                                       LONG. DISPERSIVITY (AL)  =   0.000000     FOR LAYER 21
                                       LONG. DISPERSIVITY (AL)  =   0.000000     FOR LAYER 22
                                       LONG. DISPERSIVITY (AL)  =   0.000000     FOR LAYER 23
                                       LONG. DISPERSIVITY (AL)  =   0.000000     FOR LAYER 24
                                       LONG. DISPERSIVITY (AL)  =   0.000000     FOR LAYER 25
                                       LONG. DISPERSIVITY (AL)  =   0.000000     FOR LAYER 26
                                       LONG. DISPERSIVITY (AL)  =   0.000000     FOR LAYER 27
                                       LONG. DISPERSIVITY (AL)  =   0.000000     FOR LAYER 28
                                       LONG. DISPERSIVITY (AL)  =   0.000000     FOR LAYER 29
                                       LONG. DISPERSIVITY (AL)  =   0.000000     FOR LAYER 30
                                       LONG. DISPERSIVITY (AL)  =   0.000000     FOR LAYER 31
                                       H. TRANS./LONG. DISP.    =  0.1000000E+00
                                       V. TRANS./LONG. DISP.    =  0.1000000E+00
                                       DIFFUSION COEFFICIENT    =  0.3080000    



                                               SOLUTION BY THE GENERALIZED CONJUGATE GRADIENT METHOD
                                               -----------------------------------------------------
                                     MAXIMUM OUTER ITERATIONS ALLOWED FOR CLOSURE =        1
                                     MAXIMUM INNER ITERATIONS ALLOWED FOR CLOSURE =     5000
                                                    PRECONDITIONING TYPE SELECTED =    1
                                                           ACCELERATION PARAMETER =    1.00000    
                                       CONCENTRATION CHANGE CRITERION FOR CLOSURE =    0.10000E-06
                                       GCG CONCENTRATION CHANGE PRINTOUT INTERVAL =      999


                                   ++++++++++++++++++++++++++++++++++++++++++++++++++++++++++++++
                                                       STRESS PERIOD NO.  001
                                   ++++++++++++++++++++++++++++++++++++++++++++++++++++++++++++++


 LENGTH OF CURRENT STRESS PERIOD =   7200.000    
 NUMBER OF TIME STEPS FOR CURRENT STRESS PERIOD =  720
 TIME STEP MULTIPLIER USED IN FLOW SOLUTION =  1.0000000    
 USER-SPECIFIED TRANSPORT STEPSIZE =   0.000000    D   
 MAXIMUM NUMBER OF TRANSPORT STEPS ALLOWED  IN ONE FLOW TIME STEP =     50000
 MULTIPLIER FOR SUCCESSIVE TRANSPORT STEPS  [USED IN IMPLICIT SCHEMES] =     1.000
 MAXIMUM TRANSPORT STEP SIZE  [USED IN IMPLICIT SCHEMES] =   0.000000    D   
1
                            STRESS PERIOD NO.    1, LENGTH =   7200.000    
                            -----------------------------------------------

                              NUMBER OF TIME STEPS =   720

                               MULTIPLIER FOR DELT =     1.000

                            INITIAL TIME STEP SIZE =  10.000000    

       NO    LAYER   ROW   COLUMN   CONCENTRATION       TYPE            COMPONENT
       1       1       1      31       285.7000         CONSTANT CONC.      1
       2       1       1      32       285.7000         CONSTANT CONC.      1
       3       1       1      33       285.7000         CONSTANT CONC.      1
       4       1       1      34       285.7000         CONSTANT CONC.      1
       5       1       1      35       285.7000         CONSTANT CONC.      1
       6       1       1      36       285.7000         CONSTANT CONC.      1
       7       1       1      37       285.7000         CONSTANT CONC.      1
       8       1       1      38       285.7000         CONSTANT CONC.      1
       9       1       1      39       285.7000         CONSTANT CONC.      1
      10       1       1      40       285.7000         CONSTANT CONC.      1
      11       1       1      41       285.7000         CONSTANT CONC.      1
      12       1       1      42       285.7000         CONSTANT CONC.      1
      13       1       1      43       285.7000         CONSTANT CONC.      1
      14       1       1      44       285.7000         CONSTANT CONC.      1
      15       1       1      45       285.7000         CONSTANT CONC.      1
      16       1       1      46       285.7000         CONSTANT CONC.      1
      17       1       1      47       285.7000         CONSTANT CONC.      1
      18       1       1      48       285.7000         CONSTANT CONC.      1
      19       1       1      49       285.7000         CONSTANT CONC.      1
      20       1       1      50       285.7000         CONSTANT CONC.      1
      21       1       1      51       285.7000         CONSTANT CONC.      1
      22       1       1      52       285.7000         CONSTANT CONC.      1
      23       1       1      53       285.7000         CONSTANT CONC.      1
      24       1       1      54       285.7000         CONSTANT CONC.      1
      25       1       1      55       285.7000         CONSTANT CONC.      1
      26       1       1      56       285.7000         CONSTANT CONC.      1
      27       1       1      57       285.7000         CONSTANT CONC.      1
      28       1       1      58       285.7000         CONSTANT CONC.      1
      29       1       1      59       285.7000         CONSTANT CONC.      1
      30       1       1      60       285.7000         CONSTANT CONC.      1
      31       1       1      61       285.7000         CONSTANT CONC.      1
      32       1       1      62       285.7000         CONSTANT CONC.      1
      33       1       1      63       285.7000         CONSTANT CONC.      1
      34       1       1      64       285.7000         CONSTANT CONC.      1
      35       1       1      65       285.7000         CONSTANT CONC.      1
      36       1       1      66       285.7000         CONSTANT CONC.      1
      37       1       1      67       285.7000         CONSTANT CONC.      1
      38       1       1      68       285.7000         CONSTANT CONC.      1
      39       1       1      69       285.7000         CONSTANT CONC.      1
      40       1       1      70       285.7000         CONSTANT CONC.      1
      41       1       1      71       285.7000         CONSTANT CONC.      1
      42       1       1      72       285.7000         CONSTANT CONC.      1
      43       1       1      73       285.7000         CONSTANT CONC.      1
      44       1       1      74       285.7000         CONSTANT CONC.      1
      45       1       1      75       285.7000         CONSTANT CONC.      1
      46       1       1      76       285.7000         CONSTANT CONC.      1
      47       1       1      77       285.7000         CONSTANT CONC.      1
      48       1       1      78       285.7000         CONSTANT CONC.      1
      49       1       1      79       285.7000         CONSTANT CONC.      1
      50       1       1      80       285.7000         CONSTANT CONC.      1
      51       1       1      81       285.7000         CONSTANT CONC.      1
      52       1       1      82       285.7000         CONSTANT CONC.      1
      53       1       1      83       285.7000         CONSTANT CONC.      1
      54       1       1      84       285.7000         CONSTANT CONC.      1
      55       1       1      85       285.7000         CONSTANT CONC.      1
      56       1       1      86       285.7000         CONSTANT CONC.      1
      57       1       1      87       285.7000         CONSTANT CONC.      1
      58       1       1      88       285.7000         CONSTANT CONC.      1
      59       1       1      89       285.7000         CONSTANT CONC.      1
      60       1       1      90       285.7000         CONSTANT CONC.      1


                                          ================================================
                                                         FROM TIME =   0.0000     TO   10.0000    

 
 SOLVING FOR HEAD 
 FLOW MODEL IS TRANSIENT
 FLOW MODEL CONTAINS CONSTANT-HEAD CELLS


 MAXIMUM STEPSIZE DURING WHICH ANY PARTICLE CANNOT MOVE MORE THAN ONE CELL
 = 0.6618E-01(WHEN MIN. R.F.=1)  AT K=   2, I=   1, J=   2

 MAXIMUM STEPSIZE WHICH MEETS STABILITY CRITERION OF THE ADVECTION TERM
 (FOR PURE FINITE-DIFFERENCE OPTION, MIXELM=0) 
 = 0.2400E-01(WHEN MIN. R.F.=1)  AT K=   2, I=   1, J= 120


 TOTAL NUMBER OF POINT SOURCES/SINKS PRESENT IN THE FLOW MODEL =    62

 MAXIMUM STEPSIZE WHICH MEETS STABILITY CRITERION OF THE SINK & SOURCE TERM
 = 0.1000E+31(WHEN MIN. R.F.=1)  AT K=   0, I=   0, J=   0

 MAXIMUM STEPSIZE WHICH MEETS STABILITY CRITERION OF THE DISPERSION TERM
 =  20.29    (WHEN MIN. R.F.=1)  AT K=   1, I=   1, J=  31


     1 CALLS TO GCG PACKAGE FOR TRANSPORT TIME STEP   1 IN FLOW TIME STEP   1 STRESS PERIOD   1
     2 TOTAL ITERATIONS

 OUTPUT CONTROL FOR STRESS PERIOD    1   TIME STEP   1
    SAVE HEAD FOR ALL LAYERS
    SAVE BUDGET
 
 SOLVING FOR HEAD 
 FLOW MODEL IS TRANSIENT
 FLOW MODEL CONTAINS CONSTANT-HEAD CELLS


 MAXIMUM STEPSIZE DURING WHICH ANY PARTICLE CANNOT MOVE MORE THAN ONE CELL
 = 0.1108    (WHEN MIN. R.F.=1)  AT K=   2, I=   1, J=   2

 MAXIMUM STEPSIZE WHICH MEETS STABILITY CRITERION OF THE ADVECTION TERM
 (FOR PURE FINITE-DIFFERENCE OPTION, MIXELM=0) 
 = 0.4422E-01(WHEN MIN. R.F.=1)  AT K=   2, I=   1, J= 120


 TOTAL NUMBER OF POINT SOURCES/SINKS PRESENT IN THE FLOW MODEL =    62

 MAXIMUM STEPSIZE WHICH MEETS STABILITY CRITERION OF THE SINK & SOURCE TERM
 = 0.1000E+31(WHEN MIN. R.F.=1)  AT K=   0, I=   0, J=   0

 MAXIMUM STEPSIZE WHICH MEETS STABILITY CRITERION OF THE DISPERSION TERM
 =  20.29    (WHEN MIN. R.F.=1)  AT K=   1, I=   1, J=  31
     1 CALLS TO GCG PACKAGE FOR TRANSPORT TIME STEP   2 IN FLOW TIME STEP   1 STRESS PERIOD   1
     2 TOTAL ITERATIONS
 
 SOLVING FOR HEAD 
 FLOW MODEL IS TRANSIENT
 FLOW MODEL CONTAINS CONSTANT-HEAD CELLS


 MAXIMUM STEPSIZE DURING WHICH ANY PARTICLE CANNOT MOVE MORE THAN ONE CELL
 = 0.1349    (WHEN MIN. R.F.=1)  AT K=   2, I=   1, J=   2

 MAXIMUM STEPSIZE WHICH MEETS STABILITY CRITERION OF THE ADVECTION TERM
 (FOR PURE FINITE-DIFFERENCE OPTION, MIXELM=0) 
 = 0.5410E-01(WHEN MIN. R.F.=1)  AT K=   2, I=   1, J= 120


 TOTAL NUMBER OF POINT SOURCES/SINKS PRESENT IN THE FLOW MODEL =    62

 MAXIMUM STEPSIZE WHICH MEETS STABILITY CRITERION OF THE SINK & SOURCE TERM
 = 0.1000E+31(WHEN MIN. R.F.=1)  AT K=   0, I=   0, J=   0

 MAXIMUM STEPSIZE WHICH MEETS STABILITY CRITERION OF THE DISPERSION TERM
 =  20.29    (WHEN MIN. R.F.=1)  AT K=   1, I=   1, J=  31
     1 CALLS TO GCG PACKAGE FOR TRANSPORT TIME STEP   3 IN FLOW TIME STEP   1 STRESS PERIOD   1
     3 TOTAL ITERATIONS
 
 SOLVING FOR HEAD 
 FLOW MODEL IS TRANSIENT
 FLOW MODEL CONTAINS CONSTANT-HEAD CELLS


 MAXIMUM STEPSIZE DURING WHICH ANY PARTICLE CANNOT MOVE MORE THAN ONE CELL
 = 0.1498    (WHEN MIN. R.F.=1)  AT K=   2, I=   1, J=   2

 MAXIMUM STEPSIZE WHICH MEETS STABILITY CRITERION OF THE ADVECTION TERM
 (FOR PURE FINITE-DIFFERENCE OPTION, MIXELM=0) 
 = 0.6010E-01(WHEN MIN. R.F.=1)  AT K=   2, I=   1, J= 120


 TOTAL NUMBER OF POINT SOURCES/SINKS PRESENT IN THE FLOW MODEL =    62

 MAXIMUM STEPSIZE WHICH MEETS STABILITY CRITERION OF THE SINK & SOURCE TERM
 = 0.1000E+31(WHEN MIN. R.F.=1)  AT K=   0, I=   0, J=   0

 MAXIMUM STEPSIZE WHICH MEETS STABILITY CRITERION OF THE DISPERSION TERM
 =  20.29    (WHEN MIN. R.F.=1)  AT K=   1, I=   1, J=  31
     1 CALLS TO GCG PACKAGE FOR TRANSPORT TIME STEP   4 IN FLOW TIME STEP   1 STRESS PERIOD   1
     3 TOTAL ITERATIONS
 
 SOLVING FOR HEAD 
 FLOW MODEL IS TRANSIENT
 FLOW MODEL CONTAINS CONSTANT-HEAD CELLS


 MAXIMUM STEPSIZE DURING WHICH ANY PARTICLE CANNOT MOVE MORE THAN ONE CELL
 = 0.1616    (WHEN MIN. R.F.=1)  AT K=   2, I=   1, J= 119

 MAXIMUM STEPSIZE WHICH MEETS STABILITY CRITERION OF THE ADVECTION TERM
 (FOR PURE FINITE-DIFFERENCE OPTION, MIXELM=0) 
 = 0.6487E-01(WHEN MIN. R.F.=1)  AT K=   2, I=   1, J= 120


 TOTAL NUMBER OF POINT SOURCES/SINKS PRESENT IN THE FLOW MODEL =    62

 MAXIMUM STEPSIZE WHICH MEETS STABILITY CRITERION OF THE SINK & SOURCE TERM
 = 0.1000E+31(WHEN MIN. R.F.=1)  AT K=   0, I=   0, J=   0

 MAXIMUM STEPSIZE WHICH MEETS STABILITY CRITERION OF THE DISPERSION TERM
 =  20.29    (WHEN MIN. R.F.=1)  AT K=   1, I=   1, J=  31
     1 CALLS TO GCG PACKAGE FOR TRANSPORT TIME STEP   5 IN FLOW TIME STEP   1 STRESS PERIOD   1
     3 TOTAL ITERATIONS
 
 SOLVING FOR HEAD 
 FLOW MODEL IS TRANSIENT
 FLOW MODEL CONTAINS CONSTANT-HEAD CELLS


 MAXIMUM STEPSIZE DURING WHICH ANY PARTICLE CANNOT MOVE MORE THAN ONE CELL
 = 0.1724    (WHEN MIN. R.F.=1)  AT K=   2, I=   1, J=   2

 MAXIMUM STEPSIZE WHICH MEETS STABILITY CRITERION OF THE ADVECTION TERM
 (FOR PURE FINITE-DIFFERENCE OPTION, MIXELM=0) 
 = 0.6923E-01(WHEN MIN. R.F.=1)  AT K=   2, I=   1, J= 120


 TOTAL NUMBER OF POINT SOURCES/SINKS PRESENT IN THE FLOW MODEL =    62

 MAXIMUM STEPSIZE WHICH MEETS STABILITY CRITERION OF THE SINK & SOURCE TERM
 = 0.1000E+31(WHEN MIN. R.F.=1)  AT K=   0, I=   0, J=   0

 MAXIMUM STEPSIZE WHICH MEETS STABILITY CRITERION OF THE DISPERSION TERM
 =  20.29    (WHEN MIN. R.F.=1)  AT K=   1, I=   1, J=  31
     1 CALLS TO GCG PACKAGE FOR TRANSPORT TIME STEP   6 IN FLOW TIME STEP   1 STRESS PERIOD   1
     3 TOTAL ITERATIONS
 
 SOLVING FOR HEAD 
 FLOW MODEL IS TRANSIENT
 FLOW MODEL CONTAINS CONSTANT-HEAD CELLS


 MAXIMUM STEPSIZE DURING WHICH ANY PARTICLE CANNOT MOVE MORE THAN ONE CELL
 = 0.1831    (WHEN MIN. R.F.=1)  AT K=   2, I=   1, J=   2

 MAXIMUM STEPSIZE WHICH MEETS STABILITY CRITERION OF THE ADVECTION TERM
 (FOR PURE FINITE-DIFFERENCE OPTION, MIXELM=0) 
 = 0.7351E-01(WHEN MIN. R.F.=1)  AT K=   2, I=   1, J= 120


 TOTAL NUMBER OF POINT SOURCES/SINKS PRESENT IN THE FLOW MODEL =    62

 MAXIMUM STEPSIZE WHICH MEETS STABILITY CRITERION OF THE SINK & SOURCE TERM
 = 0.1000E+31(WHEN MIN. R.F.=1)  AT K=   0, I=   0, J=   0

 MAXIMUM STEPSIZE WHICH MEETS STABILITY CRITERION OF THE DISPERSION TERM
 =  20.29    (WHEN MIN. R.F.=1)  AT K=   1, I=   1, J=  31
     1 CALLS TO GCG PACKAGE FOR TRANSPORT TIME STEP   7 IN FLOW TIME STEP   1 STRESS PERIOD   1
     3 TOTAL ITERATIONS
 
 SOLVING FOR HEAD 
 FLOW MODEL IS TRANSIENT
 FLOW MODEL CONTAINS CONSTANT-HEAD CELLS


 MAXIMUM STEPSIZE DURING WHICH ANY PARTICLE CANNOT MOVE MORE THAN ONE CELL
 = 0.1940    (WHEN MIN. R.F.=1)  AT K=   2, I=   1, J=   2

 MAXIMUM STEPSIZE WHICH MEETS STABILITY CRITERION OF THE ADVECTION TERM
 (FOR PURE FINITE-DIFFERENCE OPTION, MIXELM=0) 
 = 0.7790E-01(WHEN MIN. R.F.=1)  AT K=   2, I=   1, J= 120


 TOTAL NUMBER OF POINT SOURCES/SINKS PRESENT IN THE FLOW MODEL =    62

 MAXIMUM STEPSIZE WHICH MEETS STABILITY CRITERION OF THE SINK & SOURCE TERM
 = 0.1000E+31(WHEN MIN. R.F.=1)  AT K=   0, I=   0, J=   0

 MAXIMUM STEPSIZE WHICH MEETS STABILITY CRITERION OF THE DISPERSION TERM
 =  20.29    (WHEN MIN. R.F.=1)  AT K=   1, I=   1, J=  31
     1 CALLS TO GCG PACKAGE FOR TRANSPORT TIME STEP   8 IN FLOW TIME STEP   1 STRESS PERIOD   1
     3 TOTAL ITERATIONS
 
 SOLVING FOR HEAD 
 FLOW MODEL IS TRANSIENT
 FLOW MODEL CONTAINS CONSTANT-HEAD CELLS


 MAXIMUM STEPSIZE DURING WHICH ANY PARTICLE CANNOT MOVE MORE THAN ONE CELL
 = 0.2055    (WHEN MIN. R.F.=1)  AT K=   2, I=   1, J=   2

 MAXIMUM STEPSIZE WHICH MEETS STABILITY CRITERION OF THE ADVECTION TERM
 (FOR PURE FINITE-DIFFERENCE OPTION, MIXELM=0) 
 = 0.8253E-01(WHEN MIN. R.F.=1)  AT K=   2, I=   1, J= 120


 TOTAL NUMBER OF POINT SOURCES/SINKS PRESENT IN THE FLOW MODEL =    62

 MAXIMUM STEPSIZE WHICH MEETS STABILITY CRITERION OF THE SINK & SOURCE TERM
 = 0.1000E+31(WHEN MIN. R.F.=1)  AT K=   0, I=   0, J=   0

 MAXIMUM STEPSIZE WHICH MEETS STABILITY CRITERION OF THE DISPERSION TERM
 =  20.29    (WHEN MIN. R.F.=1)  AT K=   1, I=   1, J=  31
     1 CALLS TO GCG PACKAGE FOR TRANSPORT TIME STEP   9 IN FLOW TIME STEP   1 STRESS PERIOD   1
     3 TOTAL ITERATIONS
 
 SOLVING FOR HEAD 
 FLOW MODEL IS TRANSIENT
 FLOW MODEL CONTAINS CONSTANT-HEAD CELLS


 MAXIMUM STEPSIZE DURING WHICH ANY PARTICLE CANNOT MOVE MORE THAN ONE CELL
 = 0.2179    (WHEN MIN. R.F.=1)  AT K=   2, I=   1, J=   2

 MAXIMUM STEPSIZE WHICH MEETS STABILITY CRITERION OF THE ADVECTION TERM
 (FOR PURE FINITE-DIFFERENCE OPTION, MIXELM=0) 
 = 0.8752E-01(WHEN MIN. R.F.=1)  AT K=   2, I=   1, J= 120


 TOTAL NUMBER OF POINT SOURCES/SINKS PRESENT IN THE FLOW MODEL =    62

 MAXIMUM STEPSIZE WHICH MEETS STABILITY CRITERION OF THE SINK & SOURCE TERM
 = 0.1000E+31(WHEN MIN. R.F.=1)  AT K=   0, I=   0, J=   0

 MAXIMUM STEPSIZE WHICH MEETS STABILITY CRITERION OF THE DISPERSION TERM
 =  20.29    (WHEN MIN. R.F.=1)  AT K=   1, I=   1, J=  31
     1 CALLS TO GCG PACKAGE FOR TRANSPORT TIME STEP  10 IN FLOW TIME STEP   1 STRESS PERIOD   1
     3 TOTAL ITERATIONS
 
 SOLVING FOR HEAD 
 FLOW MODEL IS TRANSIENT
 FLOW MODEL CONTAINS CONSTANT-HEAD CELLS


 MAXIMUM STEPSIZE DURING WHICH ANY PARTICLE CANNOT MOVE MORE THAN ONE CELL
 = 0.2316    (WHEN MIN. R.F.=1)  AT K=   2, I=   1, J=   2

 MAXIMUM STEPSIZE WHICH MEETS STABILITY CRITERION OF THE ADVECTION TERM
 (FOR PURE FINITE-DIFFERENCE OPTION, MIXELM=0) 
 = 0.9301E-01(WHEN MIN. R.F.=1)  AT K=   2, I=   1, J= 120


 TOTAL NUMBER OF POINT SOURCES/SINKS PRESENT IN THE FLOW MODEL =    62

 MAXIMUM STEPSIZE WHICH MEETS STABILITY CRITERION OF THE SINK & SOURCE TERM
 = 0.1000E+31(WHEN MIN. R.F.=1)  AT K=   0, I=   0, J=   0

 MAXIMUM STEPSIZE WHICH MEETS STABILITY CRITERION OF THE DISPERSION TERM
 =  20.29    (WHEN MIN. R.F.=1)  AT K=   1, I=   1, J=  31
     1 CALLS TO GCG PACKAGE FOR TRANSPORT TIME STEP  11 IN FLOW TIME STEP   1 STRESS PERIOD   1
     3 TOTAL ITERATIONS
 
 SOLVING FOR HEAD 
 FLOW MODEL IS TRANSIENT
 FLOW MODEL CONTAINS CONSTANT-HEAD CELLS


 MAXIMUM STEPSIZE DURING WHICH ANY PARTICLE CANNOT MOVE MORE THAN ONE CELL
 = 0.2468    (WHEN MIN. R.F.=1)  AT K=   2, I=   1, J=   2

 MAXIMUM STEPSIZE WHICH MEETS STABILITY CRITERION OF THE ADVECTION TERM
 (FOR PURE FINITE-DIFFERENCE OPTION, MIXELM=0) 
 = 0.9911E-01(WHEN MIN. R.F.=1)  AT K=   2, I=   1, J= 120


 TOTAL NUMBER OF POINT SOURCES/SINKS PRESENT IN THE FLOW MODEL =    62

 MAXIMUM STEPSIZE WHICH MEETS STABILITY CRITERION OF THE SINK & SOURCE TERM
 = 0.1000E+31(WHEN MIN. R.F.=1)  AT K=   0, I=   0, J=   0

 MAXIMUM STEPSIZE WHICH MEETS STABILITY CRITERION OF THE DISPERSION TERM
 =  20.29    (WHEN MIN. R.F.=1)  AT K=   1, I=   1, J=  31
     1 CALLS TO GCG PACKAGE FOR TRANSPORT TIME STEP  12 IN FLOW TIME STEP   1 STRESS PERIOD   1
     3 TOTAL ITERATIONS
 
 SOLVING FOR HEAD 
 FLOW MODEL IS TRANSIENT
 FLOW MODEL CONTAINS CONSTANT-HEAD CELLS


 MAXIMUM STEPSIZE DURING WHICH ANY PARTICLE CANNOT MOVE MORE THAN ONE CELL
 = 0.2639    (WHEN MIN. R.F.=1)  AT K=   2, I=   1, J=   2

 MAXIMUM STEPSIZE WHICH MEETS STABILITY CRITERION OF THE ADVECTION TERM
 (FOR PURE FINITE-DIFFERENCE OPTION, MIXELM=0) 
 = 0.1060    (WHEN MIN. R.F.=1)  AT K=   2, I=   1, J= 120


 TOTAL NUMBER OF POINT SOURCES/SINKS PRESENT IN THE FLOW MODEL =    62

 MAXIMUM STEPSIZE WHICH MEETS STABILITY CRITERION OF THE SINK & SOURCE TERM
 = 0.1000E+31(WHEN MIN. R.F.=1)  AT K=   0, I=   0, J=   0

 MAXIMUM STEPSIZE WHICH MEETS STABILITY CRITERION OF THE DISPERSION TERM
 =  20.29    (WHEN MIN. R.F.=1)  AT K=   1, I=   1, J=  31
     1 CALLS TO GCG PACKAGE FOR TRANSPORT TIME STEP  13 IN FLOW TIME STEP   1 STRESS PERIOD   1
     3 TOTAL ITERATIONS
 
 SOLVING FOR HEAD 
 FLOW MODEL IS TRANSIENT
 FLOW MODEL CONTAINS CONSTANT-HEAD CELLS


 MAXIMUM STEPSIZE DURING WHICH ANY PARTICLE CANNOT MOVE MORE THAN ONE CELL
 = 0.2833    (WHEN MIN. R.F.=1)  AT K=   2, I=   1, J=   2

 MAXIMUM STEPSIZE WHICH MEETS STABILITY CRITERION OF THE ADVECTION TERM
 (FOR PURE FINITE-DIFFERENCE OPTION, MIXELM=0) 
 = 0.1138    (WHEN MIN. R.F.=1)  AT K=   2, I=   1, J= 120


 TOTAL NUMBER OF POINT SOURCES/SINKS PRESENT IN THE FLOW MODEL =    62

 MAXIMUM STEPSIZE WHICH MEETS STABILITY CRITERION OF THE SINK & SOURCE TERM
 = 0.1000E+31(WHEN MIN. R.F.=1)  AT K=   0, I=   0, J=   0

 MAXIMUM STEPSIZE WHICH MEETS STABILITY CRITERION OF THE DISPERSION TERM
 =  20.29    (WHEN MIN. R.F.=1)  AT K=   1, I=   1, J=  31
     1 CALLS TO GCG PACKAGE FOR TRANSPORT TIME STEP  14 IN FLOW TIME STEP   1 STRESS PERIOD   1
     3 TOTAL ITERATIONS
 
 SOLVING FOR HEAD 
 FLOW MODEL IS TRANSIENT
 FLOW MODEL CONTAINS CONSTANT-HEAD CELLS


 MAXIMUM STEPSIZE DURING WHICH ANY PARTICLE CANNOT MOVE MORE THAN ONE CELL
 = 0.3058    (WHEN MIN. R.F.=1)  AT K=   2, I=   1, J=   2

 MAXIMUM STEPSIZE WHICH MEETS STABILITY CRITERION OF THE ADVECTION TERM
 (FOR PURE FINITE-DIFFERENCE OPTION, MIXELM=0) 
 = 0.1228    (WHEN MIN. R.F.=1)  AT K=   2, I=   1, J= 120


 TOTAL NUMBER OF POINT SOURCES/SINKS PRESENT IN THE FLOW MODEL =    62

 MAXIMUM STEPSIZE WHICH MEETS STABILITY CRITERION OF THE SINK & SOURCE TERM
 = 0.1000E+31(WHEN MIN. R.F.=1)  AT K=   0, I=   0, J=   0

 MAXIMUM STEPSIZE WHICH MEETS STABILITY CRITERION OF THE DISPERSION TERM
 =  20.29    (WHEN MIN. R.F.=1)  AT K=   1, I=   1, J=  31
     1 CALLS TO GCG PACKAGE FOR TRANSPORT TIME STEP  15 IN FLOW TIME STEP   1 STRESS PERIOD   1
     3 TOTAL ITERATIONS
 
 SOLVING FOR HEAD 
 FLOW MODEL IS TRANSIENT
 FLOW MODEL CONTAINS CONSTANT-HEAD CELLS


 MAXIMUM STEPSIZE DURING WHICH ANY PARTICLE CANNOT MOVE MORE THAN ONE CELL
 = 0.3318    (WHEN MIN. R.F.=1)  AT K=   2, I=   1, J=   2

 MAXIMUM STEPSIZE WHICH MEETS STABILITY CRITERION OF THE ADVECTION TERM
 (FOR PURE FINITE-DIFFERENCE OPTION, MIXELM=0) 
 = 0.1333    (WHEN MIN. R.F.=1)  AT K=   2, I=   1, J= 120


 TOTAL NUMBER OF POINT SOURCES/SINKS PRESENT IN THE FLOW MODEL =    62

 MAXIMUM STEPSIZE WHICH MEETS STABILITY CRITERION OF THE SINK & SOURCE TERM
 = 0.1000E+31(WHEN MIN. R.F.=1)  AT K=   0, I=   0, J=   0

 MAXIMUM STEPSIZE WHICH MEETS STABILITY CRITERION OF THE DISPERSION TERM
 =  20.29    (WHEN MIN. R.F.=1)  AT K=   1, I=   1, J=  31
     1 CALLS TO GCG PACKAGE FOR TRANSPORT TIME STEP  16 IN FLOW TIME STEP   1 STRESS PERIOD   1
     3 TOTAL ITERATIONS
 
 SOLVING FOR HEAD 
 FLOW MODEL IS TRANSIENT
 FLOW MODEL CONTAINS CONSTANT-HEAD CELLS


 MAXIMUM STEPSIZE DURING WHICH ANY PARTICLE CANNOT MOVE MORE THAN ONE CELL
 = 0.3625    (WHEN MIN. R.F.=1)  AT K=   2, I=   1, J=   2

 MAXIMUM STEPSIZE WHICH MEETS STABILITY CRITERION OF THE ADVECTION TERM
 (FOR PURE FINITE-DIFFERENCE OPTION, MIXELM=0) 
 = 0.1456    (WHEN MIN. R.F.=1)  AT K=   2, I=   1, J= 120


 TOTAL NUMBER OF POINT SOURCES/SINKS PRESENT IN THE FLOW MODEL =    62

 MAXIMUM STEPSIZE WHICH MEETS STABILITY CRITERION OF THE SINK & SOURCE TERM
 = 0.1000E+31(WHEN MIN. R.F.=1)  AT K=   0, I=   0, J=   0

 MAXIMUM STEPSIZE WHICH MEETS STABILITY CRITERION OF THE DISPERSION TERM
 =  20.29    (WHEN MIN. R.F.=1)  AT K=   1, I=   1, J=  31
     1 CALLS TO GCG PACKAGE FOR TRANSPORT TIME STEP  17 IN FLOW TIME STEP   1 STRESS PERIOD   1
     3 TOTAL ITERATIONS
 
 SOLVING FOR HEAD 
 FLOW MODEL IS TRANSIENT
 FLOW MODEL CONTAINS CONSTANT-HEAD CELLS


 MAXIMUM STEPSIZE DURING WHICH ANY PARTICLE CANNOT MOVE MORE THAN ONE CELL
 = 0.3991    (WHEN MIN. R.F.=1)  AT K=   2, I=   1, J=   2

 MAXIMUM STEPSIZE WHICH MEETS STABILITY CRITERION OF THE ADVECTION TERM
 (FOR PURE FINITE-DIFFERENCE OPTION, MIXELM=0) 
 = 0.1603    (WHEN MIN. R.F.=1)  AT K=   2, I=   1, J= 120


 TOTAL NUMBER OF POINT SOURCES/SINKS PRESENT IN THE FLOW MODEL =    62

 MAXIMUM STEPSIZE WHICH MEETS STABILITY CRITERION OF THE SINK & SOURCE TERM
 = 0.1000E+31(WHEN MIN. R.F.=1)  AT K=   0, I=   0, J=   0

 MAXIMUM STEPSIZE WHICH MEETS STABILITY CRITERION OF THE DISPERSION TERM
 =  20.29    (WHEN MIN. R.F.=1)  AT K=   1, I=   1, J=  31
     1 CALLS TO GCG PACKAGE FOR TRANSPORT TIME STEP  18 IN FLOW TIME STEP   1 STRESS PERIOD   1
     3 TOTAL ITERATIONS
 
 SOLVING FOR HEAD 
 FLOW MODEL IS TRANSIENT
 FLOW MODEL CONTAINS CONSTANT-HEAD CELLS


 MAXIMUM STEPSIZE DURING WHICH ANY PARTICLE CANNOT MOVE MORE THAN ONE CELL
 = 0.4435    (WHEN MIN. R.F.=1)  AT K=   2, I=   1, J=   2

 MAXIMUM STEPSIZE WHICH MEETS STABILITY CRITERION OF THE ADVECTION TERM
 (FOR PURE FINITE-DIFFERENCE OPTION, MIXELM=0) 
 = 0.1781    (WHEN MIN. R.F.=1)  AT K=   2, I=   1, J= 120


 TOTAL NUMBER OF POINT SOURCES/SINKS PRESENT IN THE FLOW MODEL =    62

 MAXIMUM STEPSIZE WHICH MEETS STABILITY CRITERION OF THE SINK & SOURCE TERM
 = 0.1000E+31(WHEN MIN. R.F.=1)  AT K=   0, I=   0, J=   0

 MAXIMUM STEPSIZE WHICH MEETS STABILITY CRITERION OF THE DISPERSION TERM
 =  20.29    (WHEN MIN. R.F.=1)  AT K=   1, I=   1, J=  31
     1 CALLS TO GCG PACKAGE FOR TRANSPORT TIME STEP  19 IN FLOW TIME STEP   1 STRESS PERIOD   1
     3 TOTAL ITERATIONS
 
 SOLVING FOR HEAD 
 FLOW MODEL IS TRANSIENT
 FLOW MODEL CONTAINS CONSTANT-HEAD CELLS


 MAXIMUM STEPSIZE DURING WHICH ANY PARTICLE CANNOT MOVE MORE THAN ONE CELL
 = 0.4983    (WHEN MIN. R.F.=1)  AT K=   2, I=   1, J=   2

 MAXIMUM STEPSIZE WHICH MEETS STABILITY CRITERION OF THE ADVECTION TERM
 (FOR PURE FINITE-DIFFERENCE OPTION, MIXELM=0) 
 = 0.2001    (WHEN MIN. R.F.=1)  AT K=   2, I=   1, J= 120


 TOTAL NUMBER OF POINT SOURCES/SINKS PRESENT IN THE FLOW MODEL =    62

 MAXIMUM STEPSIZE WHICH MEETS STABILITY CRITERION OF THE SINK & SOURCE TERM
 = 0.1000E+31(WHEN MIN. R.F.=1)  AT K=   0, I=   0, J=   0

 MAXIMUM STEPSIZE WHICH MEETS STABILITY CRITERION OF THE DISPERSION TERM
 =  20.29    (WHEN MIN. R.F.=1)  AT K=   1, I=   1, J=  31
     1 CALLS TO GCG PACKAGE FOR TRANSPORT TIME STEP  20 IN FLOW TIME STEP   1 STRESS PERIOD   1
     3 TOTAL ITERATIONS
 
 SOLVING FOR HEAD 
 FLOW MODEL IS TRANSIENT
 FLOW MODEL CONTAINS CONSTANT-HEAD CELLS


 MAXIMUM STEPSIZE DURING WHICH ANY PARTICLE CANNOT MOVE MORE THAN ONE CELL
 = 0.5675    (WHEN MIN. R.F.=1)  AT K=   2, I=   1, J=   2

 MAXIMUM STEPSIZE WHICH MEETS STABILITY CRITERION OF THE ADVECTION TERM
 (FOR PURE FINITE-DIFFERENCE OPTION, MIXELM=0) 
 = 0.2279    (WHEN MIN. R.F.=1)  AT K=   2, I=   1, J= 120


 TOTAL NUMBER OF POINT SOURCES/SINKS PRESENT IN THE FLOW MODEL =    62

 MAXIMUM STEPSIZE WHICH MEETS STABILITY CRITERION OF THE SINK & SOURCE TERM
 = 0.1000E+31(WHEN MIN. R.F.=1)  AT K=   0, I=   0, J=   0

 MAXIMUM STEPSIZE WHICH MEETS STABILITY CRITERION OF THE DISPERSION TERM
 =  20.29    (WHEN MIN. R.F.=1)  AT K=   1, I=   1, J=  31
     1 CALLS TO GCG PACKAGE FOR TRANSPORT TIME STEP  21 IN FLOW TIME STEP   1 STRESS PERIOD   1
     3 TOTAL ITERATIONS
 
 SOLVING FOR HEAD 
 FLOW MODEL IS TRANSIENT
 FLOW MODEL CONTAINS CONSTANT-HEAD CELLS


 MAXIMUM STEPSIZE DURING WHICH ANY PARTICLE CANNOT MOVE MORE THAN ONE CELL
 = 0.6573    (WHEN MIN. R.F.=1)  AT K=   2, I=   1, J=   2

 MAXIMUM STEPSIZE WHICH MEETS STABILITY CRITERION OF THE ADVECTION TERM
 (FOR PURE FINITE-DIFFERENCE OPTION, MIXELM=0) 
 = 0.2640    (WHEN MIN. R.F.=1)  AT K=   2, I=   1, J= 120


 TOTAL NUMBER OF POINT SOURCES/SINKS PRESENT IN THE FLOW MODEL =    62

 MAXIMUM STEPSIZE WHICH MEETS STABILITY CRITERION OF THE SINK & SOURCE TERM
 = 0.1000E+31(WHEN MIN. R.F.=1)  AT K=   0, I=   0, J=   0

 MAXIMUM STEPSIZE WHICH MEETS STABILITY CRITERION OF THE DISPERSION TERM
 =  20.29    (WHEN MIN. R.F.=1)  AT K=   1, I=   1, J=  31
     1 CALLS TO GCG PACKAGE FOR TRANSPORT TIME STEP  22 IN FLOW TIME STEP   1 STRESS PERIOD   1
     3 TOTAL ITERATIONS
 
 SOLVING FOR HEAD 
 FLOW MODEL IS TRANSIENT
 FLOW MODEL CONTAINS CONSTANT-HEAD CELLS


 MAXIMUM STEPSIZE DURING WHICH ANY PARTICLE CANNOT MOVE MORE THAN ONE CELL
 = 0.7778    (WHEN MIN. R.F.=1)  AT K=   2, I=   1, J=   2

 MAXIMUM STEPSIZE WHICH MEETS STABILITY CRITERION OF THE ADVECTION TERM
 (FOR PURE FINITE-DIFFERENCE OPTION, MIXELM=0) 
 = 0.3124    (WHEN MIN. R.F.=1)  AT K=   2, I=   1, J= 120


 TOTAL NUMBER OF POINT SOURCES/SINKS PRESENT IN THE FLOW MODEL =    62

 MAXIMUM STEPSIZE WHICH MEETS STABILITY CRITERION OF THE SINK & SOURCE TERM
 = 0.1000E+31(WHEN MIN. R.F.=1)  AT K=   0, I=   0, J=   0

 MAXIMUM STEPSIZE WHICH MEETS STABILITY CRITERION OF THE DISPERSION TERM
 =  20.29    (WHEN MIN. R.F.=1)  AT K=   1, I=   1, J=  31
     1 CALLS TO GCG PACKAGE FOR TRANSPORT TIME STEP  23 IN FLOW TIME STEP   1 STRESS PERIOD   1
     3 TOTAL ITERATIONS
 
 SOLVING FOR HEAD 
 FLOW MODEL IS TRANSIENT
 FLOW MODEL CONTAINS CONSTANT-HEAD CELLS


 MAXIMUM STEPSIZE DURING WHICH ANY PARTICLE CANNOT MOVE MORE THAN ONE CELL
 = 0.9466    (WHEN MIN. R.F.=1)  AT K=   2, I=   1, J=   2

 MAXIMUM STEPSIZE WHICH MEETS STABILITY CRITERION OF THE ADVECTION TERM
 (FOR PURE FINITE-DIFFERENCE OPTION, MIXELM=0) 
 = 0.3802    (WHEN MIN. R.F.=1)  AT K=   2, I=   1, J= 120


 TOTAL NUMBER OF POINT SOURCES/SINKS PRESENT IN THE FLOW MODEL =    62

 MAXIMUM STEPSIZE WHICH MEETS STABILITY CRITERION OF THE SINK & SOURCE TERM
 = 0.1000E+31(WHEN MIN. R.F.=1)  AT K=   0, I=   0, J=   0

 MAXIMUM STEPSIZE WHICH MEETS STABILITY CRITERION OF THE DISPERSION TERM
 =  20.29    (WHEN MIN. R.F.=1)  AT K=   1, I=   1, J=  31
     1 CALLS TO GCG PACKAGE FOR TRANSPORT TIME STEP  24 IN FLOW TIME STEP   1 STRESS PERIOD   1
     3 TOTAL ITERATIONS
 
 SOLVING FOR HEAD 
 FLOW MODEL IS TRANSIENT
 FLOW MODEL CONTAINS CONSTANT-HEAD CELLS


 MAXIMUM STEPSIZE DURING WHICH ANY PARTICLE CANNOT MOVE MORE THAN ONE CELL
 =  1.197    (WHEN MIN. R.F.=1)  AT K=   2, I=   1, J=   2

 MAXIMUM STEPSIZE WHICH MEETS STABILITY CRITERION OF THE ADVECTION TERM
 (FOR PURE FINITE-DIFFERENCE OPTION, MIXELM=0) 
 = 0.4808    (WHEN MIN. R.F.=1)  AT K=   2, I=   1, J= 120


 TOTAL NUMBER OF POINT SOURCES/SINKS PRESENT IN THE FLOW MODEL =    62

 MAXIMUM STEPSIZE WHICH MEETS STABILITY CRITERION OF THE SINK & SOURCE TERM
 = 0.1000E+31(WHEN MIN. R.F.=1)  AT K=   0, I=   0, J=   0

 MAXIMUM STEPSIZE WHICH MEETS STABILITY CRITERION OF THE DISPERSION TERM
 =  20.29    (WHEN MIN. R.F.=1)  AT K=   1, I=   1, J=  31
     1 CALLS TO GCG PACKAGE FOR TRANSPORT TIME STEP  25 IN FLOW TIME STEP   1 STRESS PERIOD   1
     3 TOTAL ITERATIONS
 
 SOLVING FOR HEAD 
 FLOW MODEL IS TRANSIENT
 FLOW MODEL CONTAINS CONSTANT-HEAD CELLS


 MAXIMUM STEPSIZE DURING WHICH ANY PARTICLE CANNOT MOVE MORE THAN ONE CELL
 =  1.598    (WHEN MIN. R.F.=1)  AT K=   2, I=   1, J=   2

 MAXIMUM STEPSIZE WHICH MEETS STABILITY CRITERION OF THE ADVECTION TERM
 (FOR PURE FINITE-DIFFERENCE OPTION, MIXELM=0) 
 = 0.6419    (WHEN MIN. R.F.=1)  AT K=   2, I=   1, J= 120


 TOTAL NUMBER OF POINT SOURCES/SINKS PRESENT IN THE FLOW MODEL =    62

 MAXIMUM STEPSIZE WHICH MEETS STABILITY CRITERION OF THE SINK & SOURCE TERM
 = 0.1000E+31(WHEN MIN. R.F.=1)  AT K=   0, I=   0, J=   0

 MAXIMUM STEPSIZE WHICH MEETS STABILITY CRITERION OF THE DISPERSION TERM
 =  20.29    (WHEN MIN. R.F.=1)  AT K=   1, I=   1, J=  31
     1 CALLS TO GCG PACKAGE FOR TRANSPORT TIME STEP  26 IN FLOW TIME STEP   1 STRESS PERIOD   1
     4 TOTAL ITERATIONS
 
 SOLVING FOR HEAD 
 FLOW MODEL IS TRANSIENT
 FLOW MODEL CONTAINS CONSTANT-HEAD CELLS


 MAXIMUM STEPSIZE DURING WHICH ANY PARTICLE CANNOT MOVE MORE THAN ONE CELL
 =  2.315    (WHEN MIN. R.F.=1)  AT K=   2, I=   1, J=   2

 MAXIMUM STEPSIZE WHICH MEETS STABILITY CRITERION OF THE ADVECTION TERM
 (FOR PURE FINITE-DIFFERENCE OPTION, MIXELM=0) 
 = 0.9299    (WHEN MIN. R.F.=1)  AT K=   2, I=   1, J= 120


 TOTAL NUMBER OF POINT SOURCES/SINKS PRESENT IN THE FLOW MODEL =    62

 MAXIMUM STEPSIZE WHICH MEETS STABILITY CRITERION OF THE SINK & SOURCE TERM
 = 0.1000E+31(WHEN MIN. R.F.=1)  AT K=   0, I=   0, J=   0

 MAXIMUM STEPSIZE WHICH MEETS STABILITY CRITERION OF THE DISPERSION TERM
 =  20.29    (WHEN MIN. R.F.=1)  AT K=   1, I=   1, J=  31
     1 CALLS TO GCG PACKAGE FOR TRANSPORT TIME STEP  27 IN FLOW TIME STEP   1 STRESS PERIOD   1
     4 TOTAL ITERATIONS
 
 SOLVING FOR HEAD 
 FLOW MODEL IS TRANSIENT
 FLOW MODEL CONTAINS CONSTANT-HEAD CELLS


 MAXIMUM STEPSIZE DURING WHICH ANY PARTICLE CANNOT MOVE MORE THAN ONE CELL
 =  3.829    (WHEN MIN. R.F.=1)  AT K=   2, I=   1, J=   2

 MAXIMUM STEPSIZE WHICH MEETS STABILITY CRITERION OF THE ADVECTION TERM
 (FOR PURE FINITE-DIFFERENCE OPTION, MIXELM=0) 
 =  1.538    (WHEN MIN. R.F.=1)  AT K=   2, I=   1, J= 120


 TOTAL NUMBER OF POINT SOURCES/SINKS PRESENT IN THE FLOW MODEL =    62

 MAXIMUM STEPSIZE WHICH MEETS STABILITY CRITERION OF THE SINK & SOURCE TERM
 = 0.1000E+31(WHEN MIN. R.F.=1)  AT K=   0, I=   0, J=   0

 MAXIMUM STEPSIZE WHICH MEETS STABILITY CRITERION OF THE DISPERSION TERM
 =  20.29    (WHEN MIN. R.F.=1)  AT K=   1, I=   1, J=  31
     1 CALLS TO GCG PACKAGE FOR TRANSPORT TIME STEP  28 IN FLOW TIME STEP   1 STRESS PERIOD   1
     4 TOTAL ITERATIONS
 
 SOLVING FOR HEAD 
 FLOW MODEL IS TRANSIENT
 FLOW MODEL CONTAINS CONSTANT-HEAD CELLS


 MAXIMUM STEPSIZE DURING WHICH ANY PARTICLE CANNOT MOVE MORE THAN ONE CELL
 =  8.043    (WHEN MIN. R.F.=1)  AT K=   2, I=   1, J=   2

 MAXIMUM STEPSIZE WHICH MEETS STABILITY CRITERION OF THE ADVECTION TERM
 (FOR PURE FINITE-DIFFERENCE OPTION, MIXELM=0) 
 =  3.230    (WHEN MIN. R.F.=1)  AT K=   2, I=   1, J= 120


 TOTAL NUMBER OF POINT SOURCES/SINKS PRESENT IN THE FLOW MODEL =    62

 MAXIMUM STEPSIZE WHICH MEETS STABILITY CRITERION OF THE SINK & SOURCE TERM
 = 0.1000E+31(WHEN MIN. R.F.=1)  AT K=   0, I=   0, J=   0

 MAXIMUM STEPSIZE WHICH MEETS STABILITY CRITERION OF THE DISPERSION TERM
 =  20.29    (WHEN MIN. R.F.=1)  AT K=   1, I=   1, J=  31
     1 CALLS TO GCG PACKAGE FOR TRANSPORT TIME STEP  29 IN FLOW TIME STEP   1 STRESS PERIOD   1
     5 TOTAL ITERATIONS
 
 SOLVING FOR HEAD 
 FLOW MODEL IS TRANSIENT
 FLOW MODEL CONTAINS CONSTANT-HEAD CELLS


 MAXIMUM STEPSIZE DURING WHICH ANY PARTICLE CANNOT MOVE MORE THAN ONE CELL
 =  28.10    (WHEN MIN. R.F.=1)  AT K=   2, I=   1, J= 119

 MAXIMUM STEPSIZE WHICH MEETS STABILITY CRITERION OF THE ADVECTION TERM
 (FOR PURE FINITE-DIFFERENCE OPTION, MIXELM=0) 
 =  11.29    (WHEN MIN. R.F.=1)  AT K=   2, I=   1, J= 120


 TOTAL NUMBER OF POINT SOURCES/SINKS PRESENT IN THE FLOW MODEL =    62

 MAXIMUM STEPSIZE WHICH MEETS STABILITY CRITERION OF THE SINK & SOURCE TERM
 = 0.1000E+31(WHEN MIN. R.F.=1)  AT K=   0, I=   0, J=   0

 MAXIMUM STEPSIZE WHICH MEETS STABILITY CRITERION OF THE DISPERSION TERM
 =  20.29    (WHEN MIN. R.F.=1)  AT K=   1, I=   1, J=  31
     1 CALLS TO GCG PACKAGE FOR TRANSPORT TIME STEP  30 IN FLOW TIME STEP   1 STRESS PERIOD   1
     6 TOTAL ITERATIONS
 
 SOLVING FOR HEAD 
 FLOW MODEL IS TRANSIENT
 FLOW MODEL CONTAINS CONSTANT-HEAD CELLS


 MAXIMUM STEPSIZE DURING WHICH ANY PARTICLE CANNOT MOVE MORE THAN ONE CELL
 =  31.82    (WHEN MIN. R.F.=1)  AT K=   2, I=   1, J=  90

 MAXIMUM STEPSIZE WHICH MEETS STABILITY CRITERION OF THE ADVECTION TERM
 (FOR PURE FINITE-DIFFERENCE OPTION, MIXELM=0) 
 =  16.56    (WHEN MIN. R.F.=1)  AT K=   2, I=   1, J=  90


 TOTAL NUMBER OF POINT SOURCES/SINKS PRESENT IN THE FLOW MODEL =    62

 MAXIMUM STEPSIZE WHICH MEETS STABILITY CRITERION OF THE SINK & SOURCE TERM
 = 0.1000E+31(WHEN MIN. R.F.=1)  AT K=   0, I=   0, J=   0

 MAXIMUM STEPSIZE WHICH MEETS STABILITY CRITERION OF THE DISPERSION TERM
 =  20.29    (WHEN MIN. R.F.=1)  AT K=   1, I=   1, J=  31
     1 CALLS TO GCG PACKAGE FOR TRANSPORT TIME STEP  31 IN FLOW TIME STEP   1 STRESS PERIOD   1
     6 TOTAL ITERATIONS
  MAXIMUM CONCENTRATION CHANGES FOR EACH ITERATION:
  MAX. CHANGE LAYER,ROW,COL MAX. CHANGE LAYER,ROW,COL MAX. CHANGE LAYER,ROW,COL MAX. CHANGE LAYER,ROW,COL MAX. CHANGE LAYER,ROW,COL
 ------------------------------------------------------------------------------------------------------------------------------------
   0.2910E-01 (  2,  1, 89)  0.1806E-02 (  2,  1, 90)  0.9829E-04 (  2,  1, 90)  0.3663E-05 (  3,  1, 91)  0.2057E-06 (  4,  1, 91)
   0.9123E-08 (  4,  1, 87)
 UBDSV1 SAVING "         STORAGE" ON UNIT  53 AT TIME STEP  1, STRESS PERIOD   1
 UBDSV2 SAVING "   CONSTANT HEAD" ON UNIT  53 AT TIME STEP  1, STRESS PERIOD   1
 UBDSV1 SAVING "FLOW RIGHT FACE " ON UNIT  53 AT TIME STEP  1, STRESS PERIOD   1
 UBDSV1 SAVING "FLOW LOWER FACE " ON UNIT  53 AT TIME STEP  1, STRESS PERIOD   1
 UBDSV1 SAVING "            DCDT" ON UNIT  53 AT TIME STEP  1, STRESS PERIOD   1

 HEAD WILL BE SAVED ON UNIT   51 AT END OF TIME STEP   1, STRESS PERIOD    1


                                          ================================================
                                                         FROM TIME =  10.0000     TO    20.000    

 
 SOLVING FOR HEAD 
 FLOW MODEL IS TRANSIENT
 FLOW MODEL CONTAINS CONSTANT-HEAD CELLS


 MAXIMUM STEPSIZE DURING WHICH ANY PARTICLE CANNOT MOVE MORE THAN ONE CELL
 =  26.79    (WHEN MIN. R.F.=1)  AT K=   2, I=   1, J=  90

 MAXIMUM STEPSIZE WHICH MEETS STABILITY CRITERION OF THE ADVECTION TERM
 (FOR PURE FINITE-DIFFERENCE OPTION, MIXELM=0) 
 =  13.28    (WHEN MIN. R.F.=1)  AT K=   2, I=   1, J=  90


 TOTAL NUMBER OF POINT SOURCES/SINKS PRESENT IN THE FLOW MODEL =    62

 MAXIMUM STEPSIZE WHICH MEETS STABILITY CRITERION OF THE SINK & SOURCE TERM
 =  147.0    (WHEN MIN. R.F.=1)  AT K=   2, I=   1, J=   1

 MAXIMUM STEPSIZE WHICH MEETS STABILITY CRITERION OF THE DISPERSION TERM
 =  20.29    (WHEN MIN. R.F.=1)  AT K=   1, I=   1, J=  31


     1 CALLS TO GCG PACKAGE FOR TRANSPORT TIME STEP   1 IN FLOW TIME STEP   2 STRESS PERIOD   1
     9 TOTAL ITERATIONS
  MAXIMUM CONCENTRATION CHANGES FOR EACH ITERATION:
  MAX. CHANGE LAYER,ROW,COL MAX. CHANGE LAYER,ROW,COL MAX. CHANGE LAYER,ROW,COL MAX. CHANGE LAYER,ROW,COL MAX. CHANGE LAYER,ROW,COL
 ------------------------------------------------------------------------------------------------------------------------------------
   0.1148     (  2,  1, 89)  0.2731E-01 (  2,  1, 90)  0.3204E-02 (  3,  1, 90)  0.4818E-03 (  3,  1, 91)  0.7677E-04 (  4,  1, 91)
   0.1087E-04 (  4,  1, 92)  0.1841E-05 (  5,  1, 92)  0.2646E-06 (  5,  1, 86)  0.4582E-07 (  6,  1, 93)

 NO OUTPUT CONTROL FOR STRESS PERIOD    1   TIME STEP   2


                                          ================================================
                                                         FROM TIME =   20.000     TO    30.000    

 
 SOLVING FOR HEAD 
 FLOW MODEL IS TRANSIENT
 FLOW MODEL CONTAINS CONSTANT-HEAD CELLS


 MAXIMUM STEPSIZE DURING WHICH ANY PARTICLE CANNOT MOVE MORE THAN ONE CELL
 =  18.24    (WHEN MIN. R.F.=1)  AT K=   3, I=   1, J=  90

 MAXIMUM STEPSIZE WHICH MEETS STABILITY CRITERION OF THE ADVECTION TERM
 (FOR PURE FINITE-DIFFERENCE OPTION, MIXELM=0) 
 =  8.745    (WHEN MIN. R.F.=1)  AT K=   2, I=   1, J=  90


 TOTAL NUMBER OF POINT SOURCES/SINKS PRESENT IN THE FLOW MODEL =    62

 MAXIMUM STEPSIZE WHICH MEETS STABILITY CRITERION OF THE SINK & SOURCE TERM
 =  115.3    (WHEN MIN. R.F.=1)  AT K=   2, I=   1, J=   1

 MAXIMUM STEPSIZE WHICH MEETS STABILITY CRITERION OF THE DISPERSION TERM
 =  20.29    (WHEN MIN. R.F.=1)  AT K=   1, I=   1, J=  31


     1 CALLS TO GCG PACKAGE FOR TRANSPORT TIME STEP   1 IN FLOW TIME STEP   3 STRESS PERIOD   1
     9 TOTAL ITERATIONS

 NO OUTPUT CONTROL FOR STRESS PERIOD    1   TIME STEP   3
 
 SOLVING FOR HEAD 
 FLOW MODEL IS TRANSIENT
 FLOW MODEL CONTAINS CONSTANT-HEAD CELLS


 MAXIMUM STEPSIZE DURING WHICH ANY PARTICLE CANNOT MOVE MORE THAN ONE CELL
 =  12.66    (WHEN MIN. R.F.=1)  AT K=   3, I=   1, J=  90

 MAXIMUM STEPSIZE WHICH MEETS STABILITY CRITERION OF THE ADVECTION TERM
 (FOR PURE FINITE-DIFFERENCE OPTION, MIXELM=0) 
 =  6.637    (WHEN MIN. R.F.=1)  AT K=   2, I=   1, J=  90


 TOTAL NUMBER OF POINT SOURCES/SINKS PRESENT IN THE FLOW MODEL =    62

 MAXIMUM STEPSIZE WHICH MEETS STABILITY CRITERION OF THE SINK & SOURCE TERM
 =  116.0    (WHEN MIN. R.F.=1)  AT K=   2, I=   1, J=   1

 MAXIMUM STEPSIZE WHICH MEETS STABILITY CRITERION OF THE DISPERSION TERM
 =  20.29    (WHEN MIN. R.F.=1)  AT K=   1, I=   1, J=  31
     1 CALLS TO GCG PACKAGE FOR TRANSPORT TIME STEP   2 IN FLOW TIME STEP   3 STRESS PERIOD   1
     3 TOTAL ITERATIONS
  MAXIMUM CONCENTRATION CHANGES FOR EACH ITERATION:
  MAX. CHANGE LAYER,ROW,COL MAX. CHANGE LAYER,ROW,COL MAX. CHANGE LAYER,ROW,COL MAX. CHANGE LAYER,ROW,COL MAX. CHANGE LAYER,ROW,COL
 ------------------------------------------------------------------------------------------------------------------------------------
   0.3524E-03 (  2,  1, 89)  0.3692E-06 (  2,  1, 90)  0.2455E-09 (  2,  1, 91)



 >>>>>>>>>>>>>>>>>>>>>>>>>>>>>>>>>>>>>>>>>>>>>>>>>>>>>>>FOR COMPONENT NO. 01<<<<<<<<<<<<<<<<<<<<<<<<<<<<<<<<<<<<<<<<<<<<<<<<<<<<<<<


                                            -------------------------------------------
                                                      TRANSPORT STEP NO.    2
                                            -------------------------------------------

 TOTAL ELAPSED TIME SINCE BEGINNING OF SIMULATION =   30.00000    D   
 .....................................................................

                     CUMULATIVE MASS BUDGETS AT END OF TRANSPORT STEP    2, TIME STEP    3, STRESS PERIOD    1
                     ------------------------------------------------------------------------------------------

                                                             IN                           OUT
                                                      ----------------             ----------------
                               CONSTANT CONCENTRATION:    14055.49                  -0.6152556E-30
                                        CONSTANT HEAD:    0.000000                  -0.9287418E-49
                               MASS STOR (FLOW MODEL):    8.381657                  -0.6817395E-03
                                MASS STORAGE (SOLUTE):    6.417165                   -14070.29    
                            ---------------------------------------------------------------------------
                                              [TOTAL]:    14070.29     KG            -14070.29     KG  

                                                          NET (IN - OUT):   0.6732896E-03
                                                   DISCREPANCY (PERCENT):   0.4785185E-05


                                          ================================================
                                                         FROM TIME =   30.000     TO    40.000    

 
 SOLVING FOR HEAD 
 FLOW MODEL IS TRANSIENT
 FLOW MODEL CONTAINS CONSTANT-HEAD CELLS


 MAXIMUM STEPSIZE DURING WHICH ANY PARTICLE CANNOT MOVE MORE THAN ONE CELL
 =  12.71    (WHEN MIN. R.F.=1)  AT K=   3, I=   1, J=  90

 MAXIMUM STEPSIZE WHICH MEETS STABILITY CRITERION OF THE ADVECTION TERM
 (FOR PURE FINITE-DIFFERENCE OPTION, MIXELM=0) 
 =  6.609    (WHEN MIN. R.F.=1)  AT K=   2, I=   1, J=  90


 TOTAL NUMBER OF POINT SOURCES/SINKS PRESENT IN THE FLOW MODEL =    62

 MAXIMUM STEPSIZE WHICH MEETS STABILITY CRITERION OF THE SINK & SOURCE TERM
 =  117.5    (WHEN MIN. R.F.=1)  AT K=   2, I=   1, J=   1

 MAXIMUM STEPSIZE WHICH MEETS STABILITY CRITERION OF THE DISPERSION TERM
 =  20.29    (WHEN MIN. R.F.=1)  AT K=   1, I=   1, J=  31


     1 CALLS TO GCG PACKAGE FOR TRANSPORT TIME STEP   1 IN FLOW TIME STEP   4 STRESS PERIOD   1
     7 TOTAL ITERATIONS

 NO OUTPUT CONTROL FOR STRESS PERIOD    1   TIME STEP   4
 
 SOLVING FOR HEAD 
 FLOW MODEL IS TRANSIENT
 FLOW MODEL CONTAINS CONSTANT-HEAD CELLS


 MAXIMUM STEPSIZE DURING WHICH ANY PARTICLE CANNOT MOVE MORE THAN ONE CELL
 =  11.11    (WHEN MIN. R.F.=1)  AT K=   3, I=   1, J=  90

 MAXIMUM STEPSIZE WHICH MEETS STABILITY CRITERION OF THE ADVECTION TERM
 (FOR PURE FINITE-DIFFERENCE OPTION, MIXELM=0) 
 =  6.004    (WHEN MIN. R.F.=1)  AT K=   2, I=   1, J=  90


 TOTAL NUMBER OF POINT SOURCES/SINKS PRESENT IN THE FLOW MODEL =    62

 MAXIMUM STEPSIZE WHICH MEETS STABILITY CRITERION OF THE SINK & SOURCE TERM
 =  124.0    (WHEN MIN. R.F.=1)  AT K=   2, I=   1, J=   1

 MAXIMUM STEPSIZE WHICH MEETS STABILITY CRITERION OF THE DISPERSION TERM
 =  20.29    (WHEN MIN. R.F.=1)  AT K=   1, I=   1, J=  31
     1 CALLS TO GCG PACKAGE FOR TRANSPORT TIME STEP   2 IN FLOW TIME STEP   4 STRESS PERIOD   1
     7 TOTAL ITERATIONS
 
 SOLVING FOR HEAD 
 FLOW MODEL IS TRANSIENT
 FLOW MODEL CONTAINS CONSTANT-HEAD CELLS


 MAXIMUM STEPSIZE DURING WHICH ANY PARTICLE CANNOT MOVE MORE THAN ONE CELL
 =  10.49    (WHEN MIN. R.F.=1)  AT K=   3, I=   1, J=  31

 MAXIMUM STEPSIZE WHICH MEETS STABILITY CRITERION OF THE ADVECTION TERM
 (FOR PURE FINITE-DIFFERENCE OPTION, MIXELM=0) 
 =  5.934    (WHEN MIN. R.F.=1)  AT K=   2, I=   1, J=  31


 TOTAL NUMBER OF POINT SOURCES/SINKS PRESENT IN THE FLOW MODEL =    62

 MAXIMUM STEPSIZE WHICH MEETS STABILITY CRITERION OF THE SINK & SOURCE TERM
 =  124.4    (WHEN MIN. R.F.=1)  AT K=   2, I=   1, J=   1

 MAXIMUM STEPSIZE WHICH MEETS STABILITY CRITERION OF THE DISPERSION TERM
 =  20.29    (WHEN MIN. R.F.=1)  AT K=   1, I=   1, J=  31
     1 CALLS TO GCG PACKAGE FOR TRANSPORT TIME STEP   3 IN FLOW TIME STEP   4 STRESS PERIOD   1
     3 TOTAL ITERATIONS
  MAXIMUM CONCENTRATION CHANGES FOR EACH ITERATION:
  MAX. CHANGE LAYER,ROW,COL MAX. CHANGE LAYER,ROW,COL MAX. CHANGE LAYER,ROW,COL MAX. CHANGE LAYER,ROW,COL MAX. CHANGE LAYER,ROW,COL
 ------------------------------------------------------------------------------------------------------------------------------------
   0.5447E-03 (  2,  1, 88)  0.8143E-06 (  2,  1, 30)  0.1187E-08 (  2,  1, 30)


                                          ================================================
                                                         FROM TIME =   40.000     TO    50.000    

 
 SOLVING FOR HEAD 
 FLOW MODEL IS TRANSIENT
 FLOW MODEL CONTAINS CONSTANT-HEAD CELLS


 MAXIMUM STEPSIZE DURING WHICH ANY PARTICLE CANNOT MOVE MORE THAN ONE CELL
 =  10.50    (WHEN MIN. R.F.=1)  AT K=   3, I=   1, J=  31

 MAXIMUM STEPSIZE WHICH MEETS STABILITY CRITERION OF THE ADVECTION TERM
 (FOR PURE FINITE-DIFFERENCE OPTION, MIXELM=0) 
 =  5.929    (WHEN MIN. R.F.=1)  AT K=   2, I=   1, J=  31


 TOTAL NUMBER OF POINT SOURCES/SINKS PRESENT IN THE FLOW MODEL =    62

 MAXIMUM STEPSIZE WHICH MEETS STABILITY CRITERION OF THE SINK & SOURCE TERM
 =  128.6    (WHEN MIN. R.F.=1)  AT K=   2, I=   1, J=   1

 MAXIMUM STEPSIZE WHICH MEETS STABILITY CRITERION OF THE DISPERSION TERM
 =  20.29    (WHEN MIN. R.F.=1)  AT K=   1, I=   1, J=  31


     1 CALLS TO GCG PACKAGE FOR TRANSPORT TIME STEP   1 IN FLOW TIME STEP   5 STRESS PERIOD   1
     7 TOTAL ITERATIONS

 NO OUTPUT CONTROL FOR STRESS PERIOD    1   TIME STEP   5
 
 SOLVING FOR HEAD 
 FLOW MODEL IS TRANSIENT
 FLOW MODEL CONTAINS CONSTANT-HEAD CELLS


 MAXIMUM STEPSIZE DURING WHICH ANY PARTICLE CANNOT MOVE MORE THAN ONE CELL
 =  10.11    (WHEN MIN. R.F.=1)  AT K=   3, I=   1, J=  31

 MAXIMUM STEPSIZE WHICH MEETS STABILITY CRITERION OF THE ADVECTION TERM
 (FOR PURE FINITE-DIFFERENCE OPTION, MIXELM=0) 
 =  5.875    (WHEN MIN. R.F.=1)  AT K=   2, I=   1, J=  31


 TOTAL NUMBER OF POINT SOURCES/SINKS PRESENT IN THE FLOW MODEL =    62

 MAXIMUM STEPSIZE WHICH MEETS STABILITY CRITERION OF THE SINK & SOURCE TERM
 =  133.2    (WHEN MIN. R.F.=1)  AT K=   2, I=   1, J= 120

 MAXIMUM STEPSIZE WHICH MEETS STABILITY CRITERION OF THE DISPERSION TERM
 =  20.29    (WHEN MIN. R.F.=1)  AT K=   1, I=   1, J=  31
     1 CALLS TO GCG PACKAGE FOR TRANSPORT TIME STEP   2 IN FLOW TIME STEP   5 STRESS PERIOD   1
     7 TOTAL ITERATIONS
 
 SOLVING FOR HEAD 
 FLOW MODEL IS TRANSIENT
 FLOW MODEL CONTAINS CONSTANT-HEAD CELLS


 MAXIMUM STEPSIZE DURING WHICH ANY PARTICLE CANNOT MOVE MORE THAN ONE CELL
 =  9.898    (WHEN MIN. R.F.=1)  AT K=   3, I=   1, J=  31

 MAXIMUM STEPSIZE WHICH MEETS STABILITY CRITERION OF THE ADVECTION TERM
 (FOR PURE FINITE-DIFFERENCE OPTION, MIXELM=0) 
 =  5.836    (WHEN MIN. R.F.=1)  AT K=   2, I=   1, J=  31


 TOTAL NUMBER OF POINT SOURCES/SINKS PRESENT IN THE FLOW MODEL =    62

 MAXIMUM STEPSIZE WHICH MEETS STABILITY CRITERION OF THE SINK & SOURCE TERM
 =  135.9    (WHEN MIN. R.F.=1)  AT K=   2, I=   1, J= 120

 MAXIMUM STEPSIZE WHICH MEETS STABILITY CRITERION OF THE DISPERSION TERM
 =  20.29    (WHEN MIN. R.F.=1)  AT K=   1, I=   1, J=  31
     1 CALLS TO GCG PACKAGE FOR TRANSPORT TIME STEP   3 IN FLOW TIME STEP   5 STRESS PERIOD   1
     5 TOTAL ITERATIONS
  MAXIMUM CONCENTRATION CHANGES FOR EACH ITERATION:
  MAX. CHANGE LAYER,ROW,COL MAX. CHANGE LAYER,ROW,COL MAX. CHANGE LAYER,ROW,COL MAX. CHANGE LAYER,ROW,COL MAX. CHANGE LAYER,ROW,COL
 ------------------------------------------------------------------------------------------------------------------------------------
   0.9767E-02 (  2,  1, 88)  0.2183E-03 (  2,  1, 30)  0.4882E-05 (  2,  1, 30)  0.1442E-06 (  3,  1, 31)  0.2541E-08 (  3,  1, 29)


                                          ================================================
                                                         FROM TIME =   50.000     TO    60.000    

 
 SOLVING FOR HEAD 
 FLOW MODEL IS TRANSIENT
 FLOW MODEL CONTAINS CONSTANT-HEAD CELLS


 MAXIMUM STEPSIZE DURING WHICH ANY PARTICLE CANNOT MOVE MORE THAN ONE CELL
 =  9.879    (WHEN MIN. R.F.=1)  AT K=   3, I=   1, J=  31

 MAXIMUM STEPSIZE WHICH MEETS STABILITY CRITERION OF THE ADVECTION TERM
 (FOR PURE FINITE-DIFFERENCE OPTION, MIXELM=0) 
 =  5.820    (WHEN MIN. R.F.=1)  AT K=   2, I=   1, J=  31


 TOTAL NUMBER OF POINT SOURCES/SINKS PRESENT IN THE FLOW MODEL =    62

 MAXIMUM STEPSIZE WHICH MEETS STABILITY CRITERION OF THE SINK & SOURCE TERM
 =  138.6    (WHEN MIN. R.F.=1)  AT K=   2, I=   1, J= 120

 MAXIMUM STEPSIZE WHICH MEETS STABILITY CRITERION OF THE DISPERSION TERM
 =  20.29    (WHEN MIN. R.F.=1)  AT K=   1, I=   1, J=  31


     1 CALLS TO GCG PACKAGE FOR TRANSPORT TIME STEP   1 IN FLOW TIME STEP   6 STRESS PERIOD   1
     7 TOTAL ITERATIONS

 NO OUTPUT CONTROL FOR STRESS PERIOD    1   TIME STEP   6
 
 SOLVING FOR HEAD 
 FLOW MODEL IS TRANSIENT
 FLOW MODEL CONTAINS CONSTANT-HEAD CELLS


 MAXIMUM STEPSIZE DURING WHICH ANY PARTICLE CANNOT MOVE MORE THAN ONE CELL
 =  10.01    (WHEN MIN. R.F.=1)  AT K=   3, I=   1, J=  31

 MAXIMUM STEPSIZE WHICH MEETS STABILITY CRITERION OF THE ADVECTION TERM
 (FOR PURE FINITE-DIFFERENCE OPTION, MIXELM=0) 
 =  5.931    (WHEN MIN. R.F.=1)  AT K=   2, I=   1, J=  31


 TOTAL NUMBER OF POINT SOURCES/SINKS PRESENT IN THE FLOW MODEL =    62

 MAXIMUM STEPSIZE WHICH MEETS STABILITY CRITERION OF THE SINK & SOURCE TERM
 =  141.8    (WHEN MIN. R.F.=1)  AT K=   2, I=   1, J= 120

 MAXIMUM STEPSIZE WHICH MEETS STABILITY CRITERION OF THE DISPERSION TERM
 =  20.29    (WHEN MIN. R.F.=1)  AT K=   1, I=   1, J=  31
     1 CALLS TO GCG PACKAGE FOR TRANSPORT TIME STEP   2 IN FLOW TIME STEP   6 STRESS PERIOD   1
     7 TOTAL ITERATIONS
 
 SOLVING FOR HEAD 
 FLOW MODEL IS TRANSIENT
 FLOW MODEL CONTAINS CONSTANT-HEAD CELLS


 MAXIMUM STEPSIZE DURING WHICH ANY PARTICLE CANNOT MOVE MORE THAN ONE CELL
 =  10.45    (WHEN MIN. R.F.=1)  AT K=   3, I=   1, J=  31

 MAXIMUM STEPSIZE WHICH MEETS STABILITY CRITERION OF THE ADVECTION TERM
 (FOR PURE FINITE-DIFFERENCE OPTION, MIXELM=0) 
 =  6.168    (WHEN MIN. R.F.=1)  AT K=   2, I=   1, J=  31


 TOTAL NUMBER OF POINT SOURCES/SINKS PRESENT IN THE FLOW MODEL =    62

 MAXIMUM STEPSIZE WHICH MEETS STABILITY CRITERION OF THE SINK & SOURCE TERM
 =  143.8    (WHEN MIN. R.F.=1)  AT K=   2, I=   1, J= 120

 MAXIMUM STEPSIZE WHICH MEETS STABILITY CRITERION OF THE DISPERSION TERM
 =  20.29    (WHEN MIN. R.F.=1)  AT K=   1, I=   1, J=  31
     1 CALLS TO GCG PACKAGE FOR TRANSPORT TIME STEP   3 IN FLOW TIME STEP   6 STRESS PERIOD   1
     5 TOTAL ITERATIONS
  MAXIMUM CONCENTRATION CHANGES FOR EACH ITERATION:
  MAX. CHANGE LAYER,ROW,COL MAX. CHANGE LAYER,ROW,COL MAX. CHANGE LAYER,ROW,COL MAX. CHANGE LAYER,ROW,COL MAX. CHANGE LAYER,ROW,COL
 ------------------------------------------------------------------------------------------------------------------------------------
   0.1256E-01 (  2,  1, 88)  0.2822E-03 (  2,  1, 88)  0.8481E-05 (  2,  1, 89)  0.2485E-06 (  4,  1, 89)  0.4606E-08 (  4,  1, 88)


                                          ================================================
                                                         FROM TIME =   60.000     TO    70.000    

 
 SOLVING FOR HEAD 
 FLOW MODEL IS TRANSIENT
 FLOW MODEL CONTAINS CONSTANT-HEAD CELLS


 MAXIMUM STEPSIZE DURING WHICH ANY PARTICLE CANNOT MOVE MORE THAN ONE CELL
 =  10.53    (WHEN MIN. R.F.=1)  AT K=   4, I=   1, J=  31

 MAXIMUM STEPSIZE WHICH MEETS STABILITY CRITERION OF THE ADVECTION TERM
 (FOR PURE FINITE-DIFFERENCE OPTION, MIXELM=0) 
 =  6.232    (WHEN MIN. R.F.=1)  AT K=   2, I=   1, J=  31


 TOTAL NUMBER OF POINT SOURCES/SINKS PRESENT IN THE FLOW MODEL =    62

 MAXIMUM STEPSIZE WHICH MEETS STABILITY CRITERION OF THE SINK & SOURCE TERM
 =  145.3    (WHEN MIN. R.F.=1)  AT K=   2, I=   1, J= 120

 MAXIMUM STEPSIZE WHICH MEETS STABILITY CRITERION OF THE DISPERSION TERM
 =  20.29    (WHEN MIN. R.F.=1)  AT K=   1, I=   1, J=  31


     1 CALLS TO GCG PACKAGE FOR TRANSPORT TIME STEP   1 IN FLOW TIME STEP   7 STRESS PERIOD   1
     7 TOTAL ITERATIONS

 NO OUTPUT CONTROL FOR STRESS PERIOD    1   TIME STEP   7
 
 SOLVING FOR HEAD 
 FLOW MODEL IS TRANSIENT
 FLOW MODEL CONTAINS CONSTANT-HEAD CELLS


 MAXIMUM STEPSIZE DURING WHICH ANY PARTICLE CANNOT MOVE MORE THAN ONE CELL
 =  10.58    (WHEN MIN. R.F.=1)  AT K=   4, I=   1, J=  31

 MAXIMUM STEPSIZE WHICH MEETS STABILITY CRITERION OF THE ADVECTION TERM
 (FOR PURE FINITE-DIFFERENCE OPTION, MIXELM=0) 
 =  6.691    (WHEN MIN. R.F.=1)  AT K=   2, I=   1, J=  31


 TOTAL NUMBER OF POINT SOURCES/SINKS PRESENT IN THE FLOW MODEL =    62

 MAXIMUM STEPSIZE WHICH MEETS STABILITY CRITERION OF THE SINK & SOURCE TERM
 =  147.8    (WHEN MIN. R.F.=1)  AT K=   2, I=   1, J=   1

 MAXIMUM STEPSIZE WHICH MEETS STABILITY CRITERION OF THE DISPERSION TERM
 =  20.29    (WHEN MIN. R.F.=1)  AT K=   1, I=   1, J=  31
     1 CALLS TO GCG PACKAGE FOR TRANSPORT TIME STEP   2 IN FLOW TIME STEP   7 STRESS PERIOD   1
     7 TOTAL ITERATIONS
 
 SOLVING FOR HEAD 
 FLOW MODEL IS TRANSIENT
 FLOW MODEL CONTAINS CONSTANT-HEAD CELLS


 MAXIMUM STEPSIZE DURING WHICH ANY PARTICLE CANNOT MOVE MORE THAN ONE CELL
 =  10.91    (WHEN MIN. R.F.=1)  AT K=   4, I=   1, J=  31

 MAXIMUM STEPSIZE WHICH MEETS STABILITY CRITERION OF THE ADVECTION TERM
 (FOR PURE FINITE-DIFFERENCE OPTION, MIXELM=0) 
 =  7.406    (WHEN MIN. R.F.=1)  AT K=   2, I=   1, J=  31


 TOTAL NUMBER OF POINT SOURCES/SINKS PRESENT IN THE FLOW MODEL =    62

 MAXIMUM STEPSIZE WHICH MEETS STABILITY CRITERION OF THE SINK & SOURCE TERM
 =  148.1    (WHEN MIN. R.F.=1)  AT K=   2, I=   1, J=   1

 MAXIMUM STEPSIZE WHICH MEETS STABILITY CRITERION OF THE DISPERSION TERM
 =  20.29    (WHEN MIN. R.F.=1)  AT K=   1, I=   1, J=  31
     1 CALLS TO GCG PACKAGE FOR TRANSPORT TIME STEP   3 IN FLOW TIME STEP   7 STRESS PERIOD   1
     4 TOTAL ITERATIONS
  MAXIMUM CONCENTRATION CHANGES FOR EACH ITERATION:
  MAX. CHANGE LAYER,ROW,COL MAX. CHANGE LAYER,ROW,COL MAX. CHANGE LAYER,ROW,COL MAX. CHANGE LAYER,ROW,COL MAX. CHANGE LAYER,ROW,COL
 ------------------------------------------------------------------------------------------------------------------------------------
   0.7978E-02 (  2,  1, 88)  0.1820E-03 (  2,  1, 32)  0.2163E-05 (  3,  1, 89)  0.3495E-07 (  4,  1, 32)


                                          ================================================
                                                         FROM TIME =   70.000     TO    80.000    

 
 SOLVING FOR HEAD 
 FLOW MODEL IS TRANSIENT
 FLOW MODEL CONTAINS CONSTANT-HEAD CELLS


 MAXIMUM STEPSIZE DURING WHICH ANY PARTICLE CANNOT MOVE MORE THAN ONE CELL
 =  10.99    (WHEN MIN. R.F.=1)  AT K=   4, I=   1, J=  31

 MAXIMUM STEPSIZE WHICH MEETS STABILITY CRITERION OF THE ADVECTION TERM
 (FOR PURE FINITE-DIFFERENCE OPTION, MIXELM=0) 
 =  7.523    (WHEN MIN. R.F.=1)  AT K=   2, I=   1, J=  31


 TOTAL NUMBER OF POINT SOURCES/SINKS PRESENT IN THE FLOW MODEL =    62

 MAXIMUM STEPSIZE WHICH MEETS STABILITY CRITERION OF THE SINK & SOURCE TERM
 =  146.5    (WHEN MIN. R.F.=1)  AT K=   2, I=   1, J=   1

 MAXIMUM STEPSIZE WHICH MEETS STABILITY CRITERION OF THE DISPERSION TERM
 =  20.29    (WHEN MIN. R.F.=1)  AT K=   1, I=   1, J=  31


     1 CALLS TO GCG PACKAGE FOR TRANSPORT TIME STEP   1 IN FLOW TIME STEP   8 STRESS PERIOD   1
     7 TOTAL ITERATIONS

 NO OUTPUT CONTROL FOR STRESS PERIOD    1   TIME STEP   8
 
 SOLVING FOR HEAD 
 FLOW MODEL IS TRANSIENT
 FLOW MODEL CONTAINS CONSTANT-HEAD CELLS


 MAXIMUM STEPSIZE DURING WHICH ANY PARTICLE CANNOT MOVE MORE THAN ONE CELL
 =  10.23    (WHEN MIN. R.F.=1)  AT K=   3, I=   1, J=  89

 MAXIMUM STEPSIZE WHICH MEETS STABILITY CRITERION OF THE ADVECTION TERM
 (FOR PURE FINITE-DIFFERENCE OPTION, MIXELM=0) 
 =  6.854    (WHEN MIN. R.F.=1)  AT K=   3, I=   1, J=  89


 TOTAL NUMBER OF POINT SOURCES/SINKS PRESENT IN THE FLOW MODEL =    62

 MAXIMUM STEPSIZE WHICH MEETS STABILITY CRITERION OF THE SINK & SOURCE TERM
 =  146.5    (WHEN MIN. R.F.=1)  AT K=   2, I=   1, J=   1

 MAXIMUM STEPSIZE WHICH MEETS STABILITY CRITERION OF THE DISPERSION TERM
 =  20.29    (WHEN MIN. R.F.=1)  AT K=   1, I=   1, J=  31
     1 CALLS TO GCG PACKAGE FOR TRANSPORT TIME STEP   2 IN FLOW TIME STEP   8 STRESS PERIOD   1
     7 TOTAL ITERATIONS
  MAXIMUM CONCENTRATION CHANGES FOR EACH ITERATION:
  MAX. CHANGE LAYER,ROW,COL MAX. CHANGE LAYER,ROW,COL MAX. CHANGE LAYER,ROW,COL MAX. CHANGE LAYER,ROW,COL MAX. CHANGE LAYER,ROW,COL
 ------------------------------------------------------------------------------------------------------------------------------------
   0.6121E-01 (  2,  1, 31)  0.6513E-02 (  2,  1, 32)  0.5867E-03 (  3,  1, 32)  0.3434E-04 (  4,  1, 32)  0.3059E-05 (  4,  1, 31)
   0.2437E-06 (  5,  1, 33)  0.1770E-07 (  5,  1, 30)


                                          ================================================
                                                         FROM TIME =   80.000     TO    90.000    

 
 SOLVING FOR HEAD 
 FLOW MODEL IS TRANSIENT
 FLOW MODEL CONTAINS CONSTANT-HEAD CELLS


 MAXIMUM STEPSIZE DURING WHICH ANY PARTICLE CANNOT MOVE MORE THAN ONE CELL
 =  8.059    (WHEN MIN. R.F.=1)  AT K=   3, I=   1, J=  89

 MAXIMUM STEPSIZE WHICH MEETS STABILITY CRITERION OF THE ADVECTION TERM
 (FOR PURE FINITE-DIFFERENCE OPTION, MIXELM=0) 
 =  5.677    (WHEN MIN. R.F.=1)  AT K=   2, I=   1, J=  89


 TOTAL NUMBER OF POINT SOURCES/SINKS PRESENT IN THE FLOW MODEL =    62

 MAXIMUM STEPSIZE WHICH MEETS STABILITY CRITERION OF THE SINK & SOURCE TERM
 =  140.3    (WHEN MIN. R.F.=1)  AT K=   2, I=   1, J=   1

 MAXIMUM STEPSIZE WHICH MEETS STABILITY CRITERION OF THE DISPERSION TERM
 =  20.29    (WHEN MIN. R.F.=1)  AT K=   1, I=   1, J=  31


     1 CALLS TO GCG PACKAGE FOR TRANSPORT TIME STEP   1 IN FLOW TIME STEP   9 STRESS PERIOD   1
     7 TOTAL ITERATIONS

 NO OUTPUT CONTROL FOR STRESS PERIOD    1   TIME STEP   9
 
 SOLVING FOR HEAD 
 FLOW MODEL IS TRANSIENT
 FLOW MODEL CONTAINS CONSTANT-HEAD CELLS


 MAXIMUM STEPSIZE DURING WHICH ANY PARTICLE CANNOT MOVE MORE THAN ONE CELL
 =  6.397    (WHEN MIN. R.F.=1)  AT K=   3, I=   1, J=  89

 MAXIMUM STEPSIZE WHICH MEETS STABILITY CRITERION OF THE ADVECTION TERM
 (FOR PURE FINITE-DIFFERENCE OPTION, MIXELM=0) 
 =  4.734    (WHEN MIN. R.F.=1)  AT K=   2, I=   1, J=  89


 TOTAL NUMBER OF POINT SOURCES/SINKS PRESENT IN THE FLOW MODEL =    62

 MAXIMUM STEPSIZE WHICH MEETS STABILITY CRITERION OF THE SINK & SOURCE TERM
 =  136.6    (WHEN MIN. R.F.=1)  AT K=   2, I=   1, J=   1

 MAXIMUM STEPSIZE WHICH MEETS STABILITY CRITERION OF THE DISPERSION TERM
 =  20.29    (WHEN MIN. R.F.=1)  AT K=   1, I=   1, J=  31
     1 CALLS TO GCG PACKAGE FOR TRANSPORT TIME STEP   2 IN FLOW TIME STEP   9 STRESS PERIOD   1
     7 TOTAL ITERATIONS
 
 SOLVING FOR HEAD 
 FLOW MODEL IS TRANSIENT
 FLOW MODEL CONTAINS CONSTANT-HEAD CELLS


 MAXIMUM STEPSIZE DURING WHICH ANY PARTICLE CANNOT MOVE MORE THAN ONE CELL
 =  5.576    (WHEN MIN. R.F.=1)  AT K=   3, I=   1, J=  89

 MAXIMUM STEPSIZE WHICH MEETS STABILITY CRITERION OF THE ADVECTION TERM
 (FOR PURE FINITE-DIFFERENCE OPTION, MIXELM=0) 
 =  4.305    (WHEN MIN. R.F.=1)  AT K=   2, I=   1, J=  89


 TOTAL NUMBER OF POINT SOURCES/SINKS PRESENT IN THE FLOW MODEL =    62

 MAXIMUM STEPSIZE WHICH MEETS STABILITY CRITERION OF THE SINK & SOURCE TERM
 =  134.8    (WHEN MIN. R.F.=1)  AT K=   2, I=   1, J=   1

 MAXIMUM STEPSIZE WHICH MEETS STABILITY CRITERION OF THE DISPERSION TERM
 =  20.29    (WHEN MIN. R.F.=1)  AT K=   1, I=   1, J=  31
     1 CALLS TO GCG PACKAGE FOR TRANSPORT TIME STEP   3 IN FLOW TIME STEP   9 STRESS PERIOD   1
     4 TOTAL ITERATIONS
  MAXIMUM CONCENTRATION CHANGES FOR EACH ITERATION:
  MAX. CHANGE LAYER,ROW,COL MAX. CHANGE LAYER,ROW,COL MAX. CHANGE LAYER,ROW,COL MAX. CHANGE LAYER,ROW,COL MAX. CHANGE LAYER,ROW,COL
 ------------------------------------------------------------------------------------------------------------------------------------
   0.9649E-02 (  2,  1, 31)  0.1312E-03 (  2,  1, 32)  0.2382E-05 (  3,  1, 89)  0.2194E-07 (  4,  1, 32)


                                          ================================================
                                                         FROM TIME =   90.000     TO   100.000    

 
 SOLVING FOR HEAD 
 FLOW MODEL IS TRANSIENT
 FLOW MODEL CONTAINS CONSTANT-HEAD CELLS


 MAXIMUM STEPSIZE DURING WHICH ANY PARTICLE CANNOT MOVE MORE THAN ONE CELL
 =  5.511    (WHEN MIN. R.F.=1)  AT K=   3, I=   1, J=  89

 MAXIMUM STEPSIZE WHICH MEETS STABILITY CRITERION OF THE ADVECTION TERM
 (FOR PURE FINITE-DIFFERENCE OPTION, MIXELM=0) 
 =  4.276    (WHEN MIN. R.F.=1)  AT K=   2, I=   1, J=  89


 TOTAL NUMBER OF POINT SOURCES/SINKS PRESENT IN THE FLOW MODEL =    62

 MAXIMUM STEPSIZE WHICH MEETS STABILITY CRITERION OF THE SINK & SOURCE TERM
 =  129.1    (WHEN MIN. R.F.=1)  AT K=   2, I=   1, J=   1

 MAXIMUM STEPSIZE WHICH MEETS STABILITY CRITERION OF THE DISPERSION TERM
 =  20.29    (WHEN MIN. R.F.=1)  AT K=   1, I=   1, J=  31


     1 CALLS TO GCG PACKAGE FOR TRANSPORT TIME STEP   1 IN FLOW TIME STEP  10 STRESS PERIOD   1
     6 TOTAL ITERATIONS

 NO OUTPUT CONTROL FOR STRESS PERIOD    1   TIME STEP  10
 
 SOLVING FOR HEAD 
 FLOW MODEL IS TRANSIENT
 FLOW MODEL CONTAINS CONSTANT-HEAD CELLS


 MAXIMUM STEPSIZE DURING WHICH ANY PARTICLE CANNOT MOVE MORE THAN ONE CELL
 =  5.204    (WHEN MIN. R.F.=1)  AT K=   3, I=   1, J=  89

 MAXIMUM STEPSIZE WHICH MEETS STABILITY CRITERION OF THE ADVECTION TERM
 (FOR PURE FINITE-DIFFERENCE OPTION, MIXELM=0) 
 =  4.120    (WHEN MIN. R.F.=1)  AT K=   2, I=   1, J=  32


 TOTAL NUMBER OF POINT SOURCES/SINKS PRESENT IN THE FLOW MODEL =    62

 MAXIMUM STEPSIZE WHICH MEETS STABILITY CRITERION OF THE SINK & SOURCE TERM
 =  127.0    (WHEN MIN. R.F.=1)  AT K=   2, I=   1, J= 120

 MAXIMUM STEPSIZE WHICH MEETS STABILITY CRITERION OF THE DISPERSION TERM
 =  20.29    (WHEN MIN. R.F.=1)  AT K=   1, I=   1, J=  31
     1 CALLS TO GCG PACKAGE FOR TRANSPORT TIME STEP   2 IN FLOW TIME STEP  10 STRESS PERIOD   1
     6 TOTAL ITERATIONS
 
 SOLVING FOR HEAD 
 FLOW MODEL IS TRANSIENT
 FLOW MODEL CONTAINS CONSTANT-HEAD CELLS


 MAXIMUM STEPSIZE DURING WHICH ANY PARTICLE CANNOT MOVE MORE THAN ONE CELL
 =  5.046    (WHEN MIN. R.F.=1)  AT K=   3, I=   1, J=  89

 MAXIMUM STEPSIZE WHICH MEETS STABILITY CRITERION OF THE ADVECTION TERM
 (FOR PURE FINITE-DIFFERENCE OPTION, MIXELM=0) 
 =  4.035    (WHEN MIN. R.F.=1)  AT K=   2, I=   1, J=  32


 TOTAL NUMBER OF POINT SOURCES/SINKS PRESENT IN THE FLOW MODEL =    62

 MAXIMUM STEPSIZE WHICH MEETS STABILITY CRITERION OF THE SINK & SOURCE TERM
 =  123.6    (WHEN MIN. R.F.=1)  AT K=   2, I=   1, J= 120

 MAXIMUM STEPSIZE WHICH MEETS STABILITY CRITERION OF THE DISPERSION TERM
 =  20.29    (WHEN MIN. R.F.=1)  AT K=   1, I=   1, J=  31
     1 CALLS TO GCG PACKAGE FOR TRANSPORT TIME STEP   3 IN FLOW TIME STEP  10 STRESS PERIOD   1
     6 TOTAL ITERATIONS
 
 SOLVING FOR HEAD 
 FLOW MODEL IS TRANSIENT
 FLOW MODEL CONTAINS CONSTANT-HEAD CELLS


 MAXIMUM STEPSIZE DURING WHICH ANY PARTICLE CANNOT MOVE MORE THAN ONE CELL
 =  4.970    (WHEN MIN. R.F.=1)  AT K=   3, I=   1, J=  32

 MAXIMUM STEPSIZE WHICH MEETS STABILITY CRITERION OF THE ADVECTION TERM
 (FOR PURE FINITE-DIFFERENCE OPTION, MIXELM=0) 
 =  4.021    (WHEN MIN. R.F.=1)  AT K=   2, I=   1, J=  32


 TOTAL NUMBER OF POINT SOURCES/SINKS PRESENT IN THE FLOW MODEL =    62

 MAXIMUM STEPSIZE WHICH MEETS STABILITY CRITERION OF THE SINK & SOURCE TERM
 =  121.9    (WHEN MIN. R.F.=1)  AT K=   2, I=   1, J= 120

 MAXIMUM STEPSIZE WHICH MEETS STABILITY CRITERION OF THE DISPERSION TERM
 =  20.29    (WHEN MIN. R.F.=1)  AT K=   1, I=   1, J=  31
     1 CALLS TO GCG PACKAGE FOR TRANSPORT TIME STEP   4 IN FLOW TIME STEP  10 STRESS PERIOD   1
     4 TOTAL ITERATIONS
  MAXIMUM CONCENTRATION CHANGES FOR EACH ITERATION:
  MAX. CHANGE LAYER,ROW,COL MAX. CHANGE LAYER,ROW,COL MAX. CHANGE LAYER,ROW,COL MAX. CHANGE LAYER,ROW,COL MAX. CHANGE LAYER,ROW,COL
 ------------------------------------------------------------------------------------------------------------------------------------
   0.8391E-02 (  2,  1, 90)  0.9608E-04 (  2,  1, 32)  0.1202E-05 (  3,  1, 32)  0.9302E-08 (  3,  1, 34)


                                          ================================================
                                                         FROM TIME =  100.000     TO    110.00    

 
 SOLVING FOR HEAD 
 FLOW MODEL IS TRANSIENT
 FLOW MODEL CONTAINS CONSTANT-HEAD CELLS


 MAXIMUM STEPSIZE DURING WHICH ANY PARTICLE CANNOT MOVE MORE THAN ONE CELL
 =  4.964    (WHEN MIN. R.F.=1)  AT K=   3, I=   1, J=  32

 MAXIMUM STEPSIZE WHICH MEETS STABILITY CRITERION OF THE ADVECTION TERM
 (FOR PURE FINITE-DIFFERENCE OPTION, MIXELM=0) 
 =  4.025    (WHEN MIN. R.F.=1)  AT K=   2, I=   1, J=  32


 TOTAL NUMBER OF POINT SOURCES/SINKS PRESENT IN THE FLOW MODEL =    62

 MAXIMUM STEPSIZE WHICH MEETS STABILITY CRITERION OF THE SINK & SOURCE TERM
 =  119.2    (WHEN MIN. R.F.=1)  AT K=   2, I=   1, J= 120

 MAXIMUM STEPSIZE WHICH MEETS STABILITY CRITERION OF THE DISPERSION TERM
 =  20.29    (WHEN MIN. R.F.=1)  AT K=   1, I=   1, J=  31


     1 CALLS TO GCG PACKAGE FOR TRANSPORT TIME STEP   1 IN FLOW TIME STEP  11 STRESS PERIOD   1
     6 TOTAL ITERATIONS

 NO OUTPUT CONTROL FOR STRESS PERIOD    1   TIME STEP  11
 
 SOLVING FOR HEAD 
 FLOW MODEL IS TRANSIENT
 FLOW MODEL CONTAINS CONSTANT-HEAD CELLS


 MAXIMUM STEPSIZE DURING WHICH ANY PARTICLE CANNOT MOVE MORE THAN ONE CELL
 =  4.930    (WHEN MIN. R.F.=1)  AT K=   3, I=   1, J=  32

 MAXIMUM STEPSIZE WHICH MEETS STABILITY CRITERION OF THE ADVECTION TERM
 (FOR PURE FINITE-DIFFERENCE OPTION, MIXELM=0) 
 =  3.993    (WHEN MIN. R.F.=1)  AT K=   2, I=   1, J=  32


 TOTAL NUMBER OF POINT SOURCES/SINKS PRESENT IN THE FLOW MODEL =    62

 MAXIMUM STEPSIZE WHICH MEETS STABILITY CRITERION OF THE SINK & SOURCE TERM
 =  116.5    (WHEN MIN. R.F.=1)  AT K=   2, I=   1, J= 120

 MAXIMUM STEPSIZE WHICH MEETS STABILITY CRITERION OF THE DISPERSION TERM
 =  20.29    (WHEN MIN. R.F.=1)  AT K=   1, I=   1, J=  31
     1 CALLS TO GCG PACKAGE FOR TRANSPORT TIME STEP   2 IN FLOW TIME STEP  11 STRESS PERIOD   1
     6 TOTAL ITERATIONS
 
 SOLVING FOR HEAD 
 FLOW MODEL IS TRANSIENT
 FLOW MODEL CONTAINS CONSTANT-HEAD CELLS


 MAXIMUM STEPSIZE DURING WHICH ANY PARTICLE CANNOT MOVE MORE THAN ONE CELL
 =  4.933    (WHEN MIN. R.F.=1)  AT K=   3, I=   1, J=  32

 MAXIMUM STEPSIZE WHICH MEETS STABILITY CRITERION OF THE ADVECTION TERM
 (FOR PURE FINITE-DIFFERENCE OPTION, MIXELM=0) 
 =  3.971    (WHEN MIN. R.F.=1)  AT K=   2, I=   1, J=  32


 TOTAL NUMBER OF POINT SOURCES/SINKS PRESENT IN THE FLOW MODEL =    62

 MAXIMUM STEPSIZE WHICH MEETS STABILITY CRITERION OF THE SINK & SOURCE TERM
 =  113.1    (WHEN MIN. R.F.=1)  AT K=   2, I=   1, J= 120

 MAXIMUM STEPSIZE WHICH MEETS STABILITY CRITERION OF THE DISPERSION TERM
 =  20.29    (WHEN MIN. R.F.=1)  AT K=   1, I=   1, J=  31
     1 CALLS TO GCG PACKAGE FOR TRANSPORT TIME STEP   3 IN FLOW TIME STEP  11 STRESS PERIOD   1
     6 TOTAL ITERATIONS
 
 SOLVING FOR HEAD 
 FLOW MODEL IS TRANSIENT
 FLOW MODEL CONTAINS CONSTANT-HEAD CELLS


 MAXIMUM STEPSIZE DURING WHICH ANY PARTICLE CANNOT MOVE MORE THAN ONE CELL
 =  4.964    (WHEN MIN. R.F.=1)  AT K=   3, I=   1, J=  32

 MAXIMUM STEPSIZE WHICH MEETS STABILITY CRITERION OF THE ADVECTION TERM
 (FOR PURE FINITE-DIFFERENCE OPTION, MIXELM=0) 
 =  3.957    (WHEN MIN. R.F.=1)  AT K=   2, I=   1, J=  89


 TOTAL NUMBER OF POINT SOURCES/SINKS PRESENT IN THE FLOW MODEL =    62

 MAXIMUM STEPSIZE WHICH MEETS STABILITY CRITERION OF THE SINK & SOURCE TERM
 =  110.6    (WHEN MIN. R.F.=1)  AT K=   2, I=   1, J= 120

 MAXIMUM STEPSIZE WHICH MEETS STABILITY CRITERION OF THE DISPERSION TERM
 =  20.29    (WHEN MIN. R.F.=1)  AT K=   1, I=   1, J=  31
     1 CALLS TO GCG PACKAGE FOR TRANSPORT TIME STEP   4 IN FLOW TIME STEP  11 STRESS PERIOD   1
     5 TOTAL ITERATIONS
  MAXIMUM CONCENTRATION CHANGES FOR EACH ITERATION:
  MAX. CHANGE LAYER,ROW,COL MAX. CHANGE LAYER,ROW,COL MAX. CHANGE LAYER,ROW,COL MAX. CHANGE LAYER,ROW,COL MAX. CHANGE LAYER,ROW,COL
 ------------------------------------------------------------------------------------------------------------------------------------
   0.1799E-01 (  2,  1, 90)  0.4030E-03 (  2,  1, 89)  0.9432E-05 (  3,  1, 89)  0.1706E-06 (  3,  1, 87)  0.3880E-08 (  4,  1, 31)


                                          ================================================
                                                         FROM TIME =   110.00     TO    120.00    

 
 SOLVING FOR HEAD 
 FLOW MODEL IS TRANSIENT
 FLOW MODEL CONTAINS CONSTANT-HEAD CELLS


 MAXIMUM STEPSIZE DURING WHICH ANY PARTICLE CANNOT MOVE MORE THAN ONE CELL
 =  4.981    (WHEN MIN. R.F.=1)  AT K=   3, I=   1, J=  32

 MAXIMUM STEPSIZE WHICH MEETS STABILITY CRITERION OF THE ADVECTION TERM
 (FOR PURE FINITE-DIFFERENCE OPTION, MIXELM=0) 
 =  3.958    (WHEN MIN. R.F.=1)  AT K=   2, I=   1, J=  89


 TOTAL NUMBER OF POINT SOURCES/SINKS PRESENT IN THE FLOW MODEL =    62

 MAXIMUM STEPSIZE WHICH MEETS STABILITY CRITERION OF THE SINK & SOURCE TERM
 =  109.7    (WHEN MIN. R.F.=1)  AT K=   2, I=   1, J= 120

 MAXIMUM STEPSIZE WHICH MEETS STABILITY CRITERION OF THE DISPERSION TERM
 =  20.29    (WHEN MIN. R.F.=1)  AT K=   1, I=   1, J=  31


     1 CALLS TO GCG PACKAGE FOR TRANSPORT TIME STEP   1 IN FLOW TIME STEP  12 STRESS PERIOD   1
     6 TOTAL ITERATIONS

 NO OUTPUT CONTROL FOR STRESS PERIOD    1   TIME STEP  12
 
 SOLVING FOR HEAD 
 FLOW MODEL IS TRANSIENT
 FLOW MODEL CONTAINS CONSTANT-HEAD CELLS


 MAXIMUM STEPSIZE DURING WHICH ANY PARTICLE CANNOT MOVE MORE THAN ONE CELL
 =  5.025    (WHEN MIN. R.F.=1)  AT K=   3, I=   1, J=  32

 MAXIMUM STEPSIZE WHICH MEETS STABILITY CRITERION OF THE ADVECTION TERM
 (FOR PURE FINITE-DIFFERENCE OPTION, MIXELM=0) 
 =  3.928    (WHEN MIN. R.F.=1)  AT K=   2, I=   1, J=  89


 TOTAL NUMBER OF POINT SOURCES/SINKS PRESENT IN THE FLOW MODEL =    62

 MAXIMUM STEPSIZE WHICH MEETS STABILITY CRITERION OF THE SINK & SOURCE TERM
 =  105.0    (WHEN MIN. R.F.=1)  AT K=   2, I=   1, J= 120

 MAXIMUM STEPSIZE WHICH MEETS STABILITY CRITERION OF THE DISPERSION TERM
 =  20.29    (WHEN MIN. R.F.=1)  AT K=   1, I=   1, J=  31
     1 CALLS TO GCG PACKAGE FOR TRANSPORT TIME STEP   2 IN FLOW TIME STEP  12 STRESS PERIOD   1
     6 TOTAL ITERATIONS
 
 SOLVING FOR HEAD 
 FLOW MODEL IS TRANSIENT
 FLOW MODEL CONTAINS CONSTANT-HEAD CELLS


 MAXIMUM STEPSIZE DURING WHICH ANY PARTICLE CANNOT MOVE MORE THAN ONE CELL
 =  5.088    (WHEN MIN. R.F.=1)  AT K=   3, I=   1, J=  32

 MAXIMUM STEPSIZE WHICH MEETS STABILITY CRITERION OF THE ADVECTION TERM
 (FOR PURE FINITE-DIFFERENCE OPTION, MIXELM=0) 
 =  3.923    (WHEN MIN. R.F.=1)  AT K=   2, I=   1, J=  89


 TOTAL NUMBER OF POINT SOURCES/SINKS PRESENT IN THE FLOW MODEL =    62

 MAXIMUM STEPSIZE WHICH MEETS STABILITY CRITERION OF THE SINK & SOURCE TERM
 =  102.0    (WHEN MIN. R.F.=1)  AT K=   2, I=   1, J= 120

 MAXIMUM STEPSIZE WHICH MEETS STABILITY CRITERION OF THE DISPERSION TERM
 =  20.29    (WHEN MIN. R.F.=1)  AT K=   1, I=   1, J=  31
     1 CALLS TO GCG PACKAGE FOR TRANSPORT TIME STEP   3 IN FLOW TIME STEP  12 STRESS PERIOD   1
     6 TOTAL ITERATIONS
 
 SOLVING FOR HEAD 
 FLOW MODEL IS TRANSIENT
 FLOW MODEL CONTAINS CONSTANT-HEAD CELLS


 MAXIMUM STEPSIZE DURING WHICH ANY PARTICLE CANNOT MOVE MORE THAN ONE CELL
 =  5.173    (WHEN MIN. R.F.=1)  AT K=   3, I=   1, J=  32

 MAXIMUM STEPSIZE WHICH MEETS STABILITY CRITERION OF THE ADVECTION TERM
 (FOR PURE FINITE-DIFFERENCE OPTION, MIXELM=0) 
 =  3.925    (WHEN MIN. R.F.=1)  AT K=   2, I=   1, J=  89


 TOTAL NUMBER OF POINT SOURCES/SINKS PRESENT IN THE FLOW MODEL =    62

 MAXIMUM STEPSIZE WHICH MEETS STABILITY CRITERION OF THE SINK & SOURCE TERM
 =  100.5    (WHEN MIN. R.F.=1)  AT K=   2, I=   1, J= 120

 MAXIMUM STEPSIZE WHICH MEETS STABILITY CRITERION OF THE DISPERSION TERM
 =  20.29    (WHEN MIN. R.F.=1)  AT K=   1, I=   1, J=  31
     1 CALLS TO GCG PACKAGE FOR TRANSPORT TIME STEP   4 IN FLOW TIME STEP  12 STRESS PERIOD   1
     5 TOTAL ITERATIONS
  MAXIMUM CONCENTRATION CHANGES FOR EACH ITERATION:
  MAX. CHANGE LAYER,ROW,COL MAX. CHANGE LAYER,ROW,COL MAX. CHANGE LAYER,ROW,COL MAX. CHANGE LAYER,ROW,COL MAX. CHANGE LAYER,ROW,COL
 ------------------------------------------------------------------------------------------------------------------------------------
   0.2136E-01 (  2,  1, 90)  0.5352E-03 (  2,  1, 89)  0.1519E-04 (  3,  1, 89)  0.3129E-06 (  3,  1, 87)  0.7253E-08 (  4,  1, 88)


                                          ================================================
                                                         FROM TIME =   120.00     TO    130.00    

 
 SOLVING FOR HEAD 
 FLOW MODEL IS TRANSIENT
 FLOW MODEL CONTAINS CONSTANT-HEAD CELLS


 MAXIMUM STEPSIZE DURING WHICH ANY PARTICLE CANNOT MOVE MORE THAN ONE CELL
 =  5.216    (WHEN MIN. R.F.=1)  AT K=   3, I=   1, J=  32

 MAXIMUM STEPSIZE WHICH MEETS STABILITY CRITERION OF THE ADVECTION TERM
 (FOR PURE FINITE-DIFFERENCE OPTION, MIXELM=0) 
 =  3.925    (WHEN MIN. R.F.=1)  AT K=   2, I=   1, J=  89


 TOTAL NUMBER OF POINT SOURCES/SINKS PRESENT IN THE FLOW MODEL =    62

 MAXIMUM STEPSIZE WHICH MEETS STABILITY CRITERION OF THE SINK & SOURCE TERM
 =  101.5    (WHEN MIN. R.F.=1)  AT K=   2, I=   1, J= 120

 MAXIMUM STEPSIZE WHICH MEETS STABILITY CRITERION OF THE DISPERSION TERM
 =  20.29    (WHEN MIN. R.F.=1)  AT K=   1, I=   1, J=  31


     1 CALLS TO GCG PACKAGE FOR TRANSPORT TIME STEP   1 IN FLOW TIME STEP  13 STRESS PERIOD   1
     6 TOTAL ITERATIONS

 NO OUTPUT CONTROL FOR STRESS PERIOD    1   TIME STEP  13
 
 SOLVING FOR HEAD 
 FLOW MODEL IS TRANSIENT
 FLOW MODEL CONTAINS CONSTANT-HEAD CELLS


 MAXIMUM STEPSIZE DURING WHICH ANY PARTICLE CANNOT MOVE MORE THAN ONE CELL
 =  5.316    (WHEN MIN. R.F.=1)  AT K=   3, I=   1, J=  32

 MAXIMUM STEPSIZE WHICH MEETS STABILITY CRITERION OF THE ADVECTION TERM
 (FOR PURE FINITE-DIFFERENCE OPTION, MIXELM=0) 
 =  3.909    (WHEN MIN. R.F.=1)  AT K=   2, I=   1, J=  89


 TOTAL NUMBER OF POINT SOURCES/SINKS PRESENT IN THE FLOW MODEL =    62

 MAXIMUM STEPSIZE WHICH MEETS STABILITY CRITERION OF THE SINK & SOURCE TERM
 =  98.19    (WHEN MIN. R.F.=1)  AT K=   2, I=   1, J= 120

 MAXIMUM STEPSIZE WHICH MEETS STABILITY CRITERION OF THE DISPERSION TERM
 =  20.29    (WHEN MIN. R.F.=1)  AT K=   1, I=   1, J=  31
     1 CALLS TO GCG PACKAGE FOR TRANSPORT TIME STEP   2 IN FLOW TIME STEP  13 STRESS PERIOD   1
     6 TOTAL ITERATIONS
 
 SOLVING FOR HEAD 
 FLOW MODEL IS TRANSIENT
 FLOW MODEL CONTAINS CONSTANT-HEAD CELLS


 MAXIMUM STEPSIZE DURING WHICH ANY PARTICLE CANNOT MOVE MORE THAN ONE CELL
 =  5.261    (WHEN MIN. R.F.=1)  AT K=   3, I=   1, J=  36

 MAXIMUM STEPSIZE WHICH MEETS STABILITY CRITERION OF THE ADVECTION TERM
 (FOR PURE FINITE-DIFFERENCE OPTION, MIXELM=0) 
 =  3.897    (WHEN MIN. R.F.=1)  AT K=   2, I=   1, J=  89


 TOTAL NUMBER OF POINT SOURCES/SINKS PRESENT IN THE FLOW MODEL =    62

 MAXIMUM STEPSIZE WHICH MEETS STABILITY CRITERION OF THE SINK & SOURCE TERM
 =  97.46    (WHEN MIN. R.F.=1)  AT K=   2, I=   1, J= 120

 MAXIMUM STEPSIZE WHICH MEETS STABILITY CRITERION OF THE DISPERSION TERM
 =  20.29    (WHEN MIN. R.F.=1)  AT K=   1, I=   1, J=  31
     1 CALLS TO GCG PACKAGE FOR TRANSPORT TIME STEP   3 IN FLOW TIME STEP  13 STRESS PERIOD   1
     6 TOTAL ITERATIONS
 
 SOLVING FOR HEAD 
 FLOW MODEL IS TRANSIENT
 FLOW MODEL CONTAINS CONSTANT-HEAD CELLS


 MAXIMUM STEPSIZE DURING WHICH ANY PARTICLE CANNOT MOVE MORE THAN ONE CELL
 =  4.943    (WHEN MIN. R.F.=1)  AT K=   3, I=   1, J=  36

 MAXIMUM STEPSIZE WHICH MEETS STABILITY CRITERION OF THE ADVECTION TERM
 (FOR PURE FINITE-DIFFERENCE OPTION, MIXELM=0) 
 =  3.885    (WHEN MIN. R.F.=1)  AT K=   2, I=   1, J=  89


 TOTAL NUMBER OF POINT SOURCES/SINKS PRESENT IN THE FLOW MODEL =    62

 MAXIMUM STEPSIZE WHICH MEETS STABILITY CRITERION OF THE SINK & SOURCE TERM
 =  96.76    (WHEN MIN. R.F.=1)  AT K=   2, I=   1, J= 120

 MAXIMUM STEPSIZE WHICH MEETS STABILITY CRITERION OF THE DISPERSION TERM
 =  20.29    (WHEN MIN. R.F.=1)  AT K=   1, I=   1, J=  31
     1 CALLS TO GCG PACKAGE FOR TRANSPORT TIME STEP   4 IN FLOW TIME STEP  13 STRESS PERIOD   1
     5 TOTAL ITERATIONS
  MAXIMUM CONCENTRATION CHANGES FOR EACH ITERATION:
  MAX. CHANGE LAYER,ROW,COL MAX. CHANGE LAYER,ROW,COL MAX. CHANGE LAYER,ROW,COL MAX. CHANGE LAYER,ROW,COL MAX. CHANGE LAYER,ROW,COL
 ------------------------------------------------------------------------------------------------------------------------------------
   0.2305E-01 (  2,  1, 90)  0.5936E-03 (  2,  1, 89)  0.1792E-04 (  3,  1, 89)  0.3526E-06 (  3,  1, 87)  0.8984E-08 (  4,  1, 90)


                                          ================================================
                                                         FROM TIME =   130.00     TO    140.00    

 
 SOLVING FOR HEAD 
 FLOW MODEL IS TRANSIENT
 FLOW MODEL CONTAINS CONSTANT-HEAD CELLS


 MAXIMUM STEPSIZE DURING WHICH ANY PARTICLE CANNOT MOVE MORE THAN ONE CELL
 =  4.827    (WHEN MIN. R.F.=1)  AT K=   3, I=   1, J=  36

 MAXIMUM STEPSIZE WHICH MEETS STABILITY CRITERION OF THE ADVECTION TERM
 (FOR PURE FINITE-DIFFERENCE OPTION, MIXELM=0) 
 =  3.878    (WHEN MIN. R.F.=1)  AT K=   2, I=   1, J=  89


 TOTAL NUMBER OF POINT SOURCES/SINKS PRESENT IN THE FLOW MODEL =    62

 MAXIMUM STEPSIZE WHICH MEETS STABILITY CRITERION OF THE SINK & SOURCE TERM
 =  98.05    (WHEN MIN. R.F.=1)  AT K=   2, I=   1, J= 120

 MAXIMUM STEPSIZE WHICH MEETS STABILITY CRITERION OF THE DISPERSION TERM
 =  20.29    (WHEN MIN. R.F.=1)  AT K=   1, I=   1, J=  31


     1 CALLS TO GCG PACKAGE FOR TRANSPORT TIME STEP   1 IN FLOW TIME STEP  14 STRESS PERIOD   1
     6 TOTAL ITERATIONS

 NO OUTPUT CONTROL FOR STRESS PERIOD    1   TIME STEP  14
 
 SOLVING FOR HEAD 
 FLOW MODEL IS TRANSIENT
 FLOW MODEL CONTAINS CONSTANT-HEAD CELLS


 MAXIMUM STEPSIZE DURING WHICH ANY PARTICLE CANNOT MOVE MORE THAN ONE CELL
 =  4.613    (WHEN MIN. R.F.=1)  AT K=   3, I=   1, J=  36

 MAXIMUM STEPSIZE WHICH MEETS STABILITY CRITERION OF THE ADVECTION TERM
 (FOR PURE FINITE-DIFFERENCE OPTION, MIXELM=0) 
 =  3.745    (WHEN MIN. R.F.=1)  AT K=   2, I=   1, J=  36


 TOTAL NUMBER OF POINT SOURCES/SINKS PRESENT IN THE FLOW MODEL =    62

 MAXIMUM STEPSIZE WHICH MEETS STABILITY CRITERION OF THE SINK & SOURCE TERM
 =  96.04    (WHEN MIN. R.F.=1)  AT K=   2, I=   1, J= 120

 MAXIMUM STEPSIZE WHICH MEETS STABILITY CRITERION OF THE DISPERSION TERM
 =  20.29    (WHEN MIN. R.F.=1)  AT K=   1, I=   1, J=  31
     1 CALLS TO GCG PACKAGE FOR TRANSPORT TIME STEP   2 IN FLOW TIME STEP  14 STRESS PERIOD   1
     6 TOTAL ITERATIONS
 
 SOLVING FOR HEAD 
 FLOW MODEL IS TRANSIENT
 FLOW MODEL CONTAINS CONSTANT-HEAD CELLS


 MAXIMUM STEPSIZE DURING WHICH ANY PARTICLE CANNOT MOVE MORE THAN ONE CELL
 =  4.437    (WHEN MIN. R.F.=1)  AT K=   3, I=   1, J=  36

 MAXIMUM STEPSIZE WHICH MEETS STABILITY CRITERION OF THE ADVECTION TERM
 (FOR PURE FINITE-DIFFERENCE OPTION, MIXELM=0) 
 =  3.558    (WHEN MIN. R.F.=1)  AT K=   2, I=   1, J=  36


 TOTAL NUMBER OF POINT SOURCES/SINKS PRESENT IN THE FLOW MODEL =    62

 MAXIMUM STEPSIZE WHICH MEETS STABILITY CRITERION OF THE SINK & SOURCE TERM
 =  95.67    (WHEN MIN. R.F.=1)  AT K=   2, I=   1, J= 120

 MAXIMUM STEPSIZE WHICH MEETS STABILITY CRITERION OF THE DISPERSION TERM
 =  20.29    (WHEN MIN. R.F.=1)  AT K=   1, I=   1, J=  31
     1 CALLS TO GCG PACKAGE FOR TRANSPORT TIME STEP   3 IN FLOW TIME STEP  14 STRESS PERIOD   1
     6 TOTAL ITERATIONS
 
 SOLVING FOR HEAD 
 FLOW MODEL IS TRANSIENT
 FLOW MODEL CONTAINS CONSTANT-HEAD CELLS


 MAXIMUM STEPSIZE DURING WHICH ANY PARTICLE CANNOT MOVE MORE THAN ONE CELL
 =  4.298    (WHEN MIN. R.F.=1)  AT K=   4, I=   1, J=  85

 MAXIMUM STEPSIZE WHICH MEETS STABILITY CRITERION OF THE ADVECTION TERM
 (FOR PURE FINITE-DIFFERENCE OPTION, MIXELM=0) 
 =  3.417    (WHEN MIN. R.F.=1)  AT K=   2, I=   1, J=  36


 TOTAL NUMBER OF POINT SOURCES/SINKS PRESENT IN THE FLOW MODEL =    62

 MAXIMUM STEPSIZE WHICH MEETS STABILITY CRITERION OF THE SINK & SOURCE TERM
 =  95.39    (WHEN MIN. R.F.=1)  AT K=   2, I=   1, J= 120

 MAXIMUM STEPSIZE WHICH MEETS STABILITY CRITERION OF THE DISPERSION TERM
 =  20.29    (WHEN MIN. R.F.=1)  AT K=   1, I=   1, J=  31
     1 CALLS TO GCG PACKAGE FOR TRANSPORT TIME STEP   4 IN FLOW TIME STEP  14 STRESS PERIOD   1
     5 TOTAL ITERATIONS
  MAXIMUM CONCENTRATION CHANGES FOR EACH ITERATION:
  MAX. CHANGE LAYER,ROW,COL MAX. CHANGE LAYER,ROW,COL MAX. CHANGE LAYER,ROW,COL MAX. CHANGE LAYER,ROW,COL MAX. CHANGE LAYER,ROW,COL
 ------------------------------------------------------------------------------------------------------------------------------------
   0.2721E-01 (  2,  1, 90)  0.7627E-03 (  2,  1, 89)  0.2611E-04 (  3,  1, 89)  0.5930E-06 (  3,  1, 87)  0.1820E-07 (  4,  1, 88)


                                          ================================================
                                                         FROM TIME =   140.00     TO    150.00    

 
 SOLVING FOR HEAD 
 FLOW MODEL IS TRANSIENT
 FLOW MODEL CONTAINS CONSTANT-HEAD CELLS


 MAXIMUM STEPSIZE DURING WHICH ANY PARTICLE CANNOT MOVE MORE THAN ONE CELL
 =  4.242    (WHEN MIN. R.F.=1)  AT K=   4, I=   1, J=  36

 MAXIMUM STEPSIZE WHICH MEETS STABILITY CRITERION OF THE ADVECTION TERM
 (FOR PURE FINITE-DIFFERENCE OPTION, MIXELM=0) 
 =  3.368    (WHEN MIN. R.F.=1)  AT K=   2, I=   1, J=  36


 TOTAL NUMBER OF POINT SOURCES/SINKS PRESENT IN THE FLOW MODEL =    62

 MAXIMUM STEPSIZE WHICH MEETS STABILITY CRITERION OF THE SINK & SOURCE TERM
 =  96.75    (WHEN MIN. R.F.=1)  AT K=   2, I=   1, J= 120

 MAXIMUM STEPSIZE WHICH MEETS STABILITY CRITERION OF THE DISPERSION TERM
 =  20.29    (WHEN MIN. R.F.=1)  AT K=   1, I=   1, J=  31


     1 CALLS TO GCG PACKAGE FOR TRANSPORT TIME STEP   1 IN FLOW TIME STEP  15 STRESS PERIOD   1
     6 TOTAL ITERATIONS

 NO OUTPUT CONTROL FOR STRESS PERIOD    1   TIME STEP  15
 
 SOLVING FOR HEAD 
 FLOW MODEL IS TRANSIENT
 FLOW MODEL CONTAINS CONSTANT-HEAD CELLS


 MAXIMUM STEPSIZE DURING WHICH ANY PARTICLE CANNOT MOVE MORE THAN ONE CELL
 =  4.167    (WHEN MIN. R.F.=1)  AT K=   4, I=   1, J=  36

 MAXIMUM STEPSIZE WHICH MEETS STABILITY CRITERION OF THE ADVECTION TERM
 (FOR PURE FINITE-DIFFERENCE OPTION, MIXELM=0) 
 =  3.278    (WHEN MIN. R.F.=1)  AT K=   2, I=   1, J=  36


 TOTAL NUMBER OF POINT SOURCES/SINKS PRESENT IN THE FLOW MODEL =    62

 MAXIMUM STEPSIZE WHICH MEETS STABILITY CRITERION OF THE SINK & SOURCE TERM
 =  95.78    (WHEN MIN. R.F.=1)  AT K=   2, I=   1, J= 120

 MAXIMUM STEPSIZE WHICH MEETS STABILITY CRITERION OF THE DISPERSION TERM
 =  20.29    (WHEN MIN. R.F.=1)  AT K=   1, I=   1, J=  31
     1 CALLS TO GCG PACKAGE FOR TRANSPORT TIME STEP   2 IN FLOW TIME STEP  15 STRESS PERIOD   1
     6 TOTAL ITERATIONS
 
 SOLVING FOR HEAD 
 FLOW MODEL IS TRANSIENT
 FLOW MODEL CONTAINS CONSTANT-HEAD CELLS


 MAXIMUM STEPSIZE DURING WHICH ANY PARTICLE CANNOT MOVE MORE THAN ONE CELL
 =  4.107    (WHEN MIN. R.F.=1)  AT K=   4, I=   1, J=  36

 MAXIMUM STEPSIZE WHICH MEETS STABILITY CRITERION OF THE ADVECTION TERM
 (FOR PURE FINITE-DIFFERENCE OPTION, MIXELM=0) 
 =  3.210    (WHEN MIN. R.F.=1)  AT K=   2, I=   1, J=  36


 TOTAL NUMBER OF POINT SOURCES/SINKS PRESENT IN THE FLOW MODEL =    62

 MAXIMUM STEPSIZE WHICH MEETS STABILITY CRITERION OF THE SINK & SOURCE TERM
 =  96.18    (WHEN MIN. R.F.=1)  AT K=   2, I=   1, J= 120

 MAXIMUM STEPSIZE WHICH MEETS STABILITY CRITERION OF THE DISPERSION TERM
 =  20.29    (WHEN MIN. R.F.=1)  AT K=   1, I=   1, J=  31
     1 CALLS TO GCG PACKAGE FOR TRANSPORT TIME STEP   3 IN FLOW TIME STEP  15 STRESS PERIOD   1
     6 TOTAL ITERATIONS
 
 SOLVING FOR HEAD 
 FLOW MODEL IS TRANSIENT
 FLOW MODEL CONTAINS CONSTANT-HEAD CELLS


 MAXIMUM STEPSIZE DURING WHICH ANY PARTICLE CANNOT MOVE MORE THAN ONE CELL
 =  4.063    (WHEN MIN. R.F.=1)  AT K=   4, I=   1, J=  36

 MAXIMUM STEPSIZE WHICH MEETS STABILITY CRITERION OF THE ADVECTION TERM
 (FOR PURE FINITE-DIFFERENCE OPTION, MIXELM=0) 
 =  3.164    (WHEN MIN. R.F.=1)  AT K=   2, I=   1, J=  36


 TOTAL NUMBER OF POINT SOURCES/SINKS PRESENT IN THE FLOW MODEL =    62

 MAXIMUM STEPSIZE WHICH MEETS STABILITY CRITERION OF THE SINK & SOURCE TERM
 =  96.56    (WHEN MIN. R.F.=1)  AT K=   2, I=   1, J= 120

 MAXIMUM STEPSIZE WHICH MEETS STABILITY CRITERION OF THE DISPERSION TERM
 =  20.29    (WHEN MIN. R.F.=1)  AT K=   1, I=   1, J=  31
     1 CALLS TO GCG PACKAGE FOR TRANSPORT TIME STEP   4 IN FLOW TIME STEP  15 STRESS PERIOD   1
     6 TOTAL ITERATIONS
 
 SOLVING FOR HEAD 
 FLOW MODEL IS TRANSIENT
 FLOW MODEL CONTAINS CONSTANT-HEAD CELLS


 MAXIMUM STEPSIZE DURING WHICH ANY PARTICLE CANNOT MOVE MORE THAN ONE CELL
 =  4.032    (WHEN MIN. R.F.=1)  AT K=   4, I=   1, J=  36

 MAXIMUM STEPSIZE WHICH MEETS STABILITY CRITERION OF THE ADVECTION TERM
 (FOR PURE FINITE-DIFFERENCE OPTION, MIXELM=0) 
 =  3.134    (WHEN MIN. R.F.=1)  AT K=   2, I=   1, J=  36


 TOTAL NUMBER OF POINT SOURCES/SINKS PRESENT IN THE FLOW MODEL =    62

 MAXIMUM STEPSIZE WHICH MEETS STABILITY CRITERION OF THE SINK & SOURCE TERM
 =  95.65    (WHEN MIN. R.F.=1)  AT K=   2, I=   1, J= 120

 MAXIMUM STEPSIZE WHICH MEETS STABILITY CRITERION OF THE DISPERSION TERM
 =  20.29    (WHEN MIN. R.F.=1)  AT K=   1, I=   1, J=  31
     1 CALLS TO GCG PACKAGE FOR TRANSPORT TIME STEP   5 IN FLOW TIME STEP  15 STRESS PERIOD   1
     3 TOTAL ITERATIONS
  MAXIMUM CONCENTRATION CHANGES FOR EACH ITERATION:
  MAX. CHANGE LAYER,ROW,COL MAX. CHANGE LAYER,ROW,COL MAX. CHANGE LAYER,ROW,COL MAX. CHANGE LAYER,ROW,COL MAX. CHANGE LAYER,ROW,COL
 ------------------------------------------------------------------------------------------------------------------------------------
   0.8585E-03 (  2,  1, 90)  0.6931E-06 (  2,  1, 89)  0.8367E-09 (  3,  1, 89)


                                          ================================================
                                                         FROM TIME =   150.00     TO    160.00    

 
 SOLVING FOR HEAD 
 FLOW MODEL IS TRANSIENT
 FLOW MODEL CONTAINS CONSTANT-HEAD CELLS


 MAXIMUM STEPSIZE DURING WHICH ANY PARTICLE CANNOT MOVE MORE THAN ONE CELL
 =  4.033    (WHEN MIN. R.F.=1)  AT K=   4, I=   1, J=  36

 MAXIMUM STEPSIZE WHICH MEETS STABILITY CRITERION OF THE ADVECTION TERM
 (FOR PURE FINITE-DIFFERENCE OPTION, MIXELM=0) 
 =  3.135    (WHEN MIN. R.F.=1)  AT K=   2, I=   1, J=  36


 TOTAL NUMBER OF POINT SOURCES/SINKS PRESENT IN THE FLOW MODEL =    62

 MAXIMUM STEPSIZE WHICH MEETS STABILITY CRITERION OF THE SINK & SOURCE TERM
 =  96.71    (WHEN MIN. R.F.=1)  AT K=   2, I=   1, J= 120

 MAXIMUM STEPSIZE WHICH MEETS STABILITY CRITERION OF THE DISPERSION TERM
 =  20.29    (WHEN MIN. R.F.=1)  AT K=   1, I=   1, J=  31


     1 CALLS TO GCG PACKAGE FOR TRANSPORT TIME STEP   1 IN FLOW TIME STEP  16 STRESS PERIOD   1
     6 TOTAL ITERATIONS

 NO OUTPUT CONTROL FOR STRESS PERIOD    1   TIME STEP  16
 
 SOLVING FOR HEAD 
 FLOW MODEL IS TRANSIENT
 FLOW MODEL CONTAINS CONSTANT-HEAD CELLS


 MAXIMUM STEPSIZE DURING WHICH ANY PARTICLE CANNOT MOVE MORE THAN ONE CELL
 =  4.021    (WHEN MIN. R.F.=1)  AT K=   4, I=   1, J=  36

 MAXIMUM STEPSIZE WHICH MEETS STABILITY CRITERION OF THE ADVECTION TERM
 (FOR PURE FINITE-DIFFERENCE OPTION, MIXELM=0) 
 =  3.122    (WHEN MIN. R.F.=1)  AT K=   2, I=   1, J=  36


 TOTAL NUMBER OF POINT SOURCES/SINKS PRESENT IN THE FLOW MODEL =    62

 MAXIMUM STEPSIZE WHICH MEETS STABILITY CRITERION OF THE SINK & SOURCE TERM
 =  96.48    (WHEN MIN. R.F.=1)  AT K=   2, I=   1, J= 120

 MAXIMUM STEPSIZE WHICH MEETS STABILITY CRITERION OF THE DISPERSION TERM
 =  20.29    (WHEN MIN. R.F.=1)  AT K=   1, I=   1, J=  31
     1 CALLS TO GCG PACKAGE FOR TRANSPORT TIME STEP   2 IN FLOW TIME STEP  16 STRESS PERIOD   1
     6 TOTAL ITERATIONS
 
 SOLVING FOR HEAD 
 FLOW MODEL IS TRANSIENT
 FLOW MODEL CONTAINS CONSTANT-HEAD CELLS


 MAXIMUM STEPSIZE DURING WHICH ANY PARTICLE CANNOT MOVE MORE THAN ONE CELL
 =  4.025    (WHEN MIN. R.F.=1)  AT K=   4, I=   1, J=  36

 MAXIMUM STEPSIZE WHICH MEETS STABILITY CRITERION OF THE ADVECTION TERM
 (FOR PURE FINITE-DIFFERENCE OPTION, MIXELM=0) 
 =  3.125    (WHEN MIN. R.F.=1)  AT K=   2, I=   1, J=  36


 TOTAL NUMBER OF POINT SOURCES/SINKS PRESENT IN THE FLOW MODEL =    62

 MAXIMUM STEPSIZE WHICH MEETS STABILITY CRITERION OF THE SINK & SOURCE TERM
 =  96.10    (WHEN MIN. R.F.=1)  AT K=   2, I=   1, J= 120

 MAXIMUM STEPSIZE WHICH MEETS STABILITY CRITERION OF THE DISPERSION TERM
 =  20.29    (WHEN MIN. R.F.=1)  AT K=   1, I=   1, J=  31
     1 CALLS TO GCG PACKAGE FOR TRANSPORT TIME STEP   3 IN FLOW TIME STEP  16 STRESS PERIOD   1
     6 TOTAL ITERATIONS
 
 SOLVING FOR HEAD 
 FLOW MODEL IS TRANSIENT
 FLOW MODEL CONTAINS CONSTANT-HEAD CELLS


 MAXIMUM STEPSIZE DURING WHICH ANY PARTICLE CANNOT MOVE MORE THAN ONE CELL
 =  4.045    (WHEN MIN. R.F.=1)  AT K=   4, I=   1, J=  36

 MAXIMUM STEPSIZE WHICH MEETS STABILITY CRITERION OF THE ADVECTION TERM
 (FOR PURE FINITE-DIFFERENCE OPTION, MIXELM=0) 
 =  3.149    (WHEN MIN. R.F.=1)  AT K=   2, I=   1, J=  36


 TOTAL NUMBER OF POINT SOURCES/SINKS PRESENT IN THE FLOW MODEL =    62

 MAXIMUM STEPSIZE WHICH MEETS STABILITY CRITERION OF THE SINK & SOURCE TERM
 =  95.11    (WHEN MIN. R.F.=1)  AT K=   2, I=   1, J=   1

 MAXIMUM STEPSIZE WHICH MEETS STABILITY CRITERION OF THE DISPERSION TERM
 =  20.29    (WHEN MIN. R.F.=1)  AT K=   1, I=   1, J=  31
     1 CALLS TO GCG PACKAGE FOR TRANSPORT TIME STEP   4 IN FLOW TIME STEP  16 STRESS PERIOD   1
     6 TOTAL ITERATIONS
 
 SOLVING FOR HEAD 
 FLOW MODEL IS TRANSIENT
 FLOW MODEL CONTAINS CONSTANT-HEAD CELLS


 MAXIMUM STEPSIZE DURING WHICH ANY PARTICLE CANNOT MOVE MORE THAN ONE CELL
 =  4.083    (WHEN MIN. R.F.=1)  AT K=   4, I=   1, J=  36

 MAXIMUM STEPSIZE WHICH MEETS STABILITY CRITERION OF THE ADVECTION TERM
 (FOR PURE FINITE-DIFFERENCE OPTION, MIXELM=0) 
 =  3.194    (WHEN MIN. R.F.=1)  AT K=   2, I=   1, J=  36


 TOTAL NUMBER OF POINT SOURCES/SINKS PRESENT IN THE FLOW MODEL =    62

 MAXIMUM STEPSIZE WHICH MEETS STABILITY CRITERION OF THE SINK & SOURCE TERM
 =  93.60    (WHEN MIN. R.F.=1)  AT K=   2, I=   1, J=   1

 MAXIMUM STEPSIZE WHICH MEETS STABILITY CRITERION OF THE DISPERSION TERM
 =  20.29    (WHEN MIN. R.F.=1)  AT K=   1, I=   1, J=  31
     1 CALLS TO GCG PACKAGE FOR TRANSPORT TIME STEP   5 IN FLOW TIME STEP  16 STRESS PERIOD   1
     4 TOTAL ITERATIONS
  MAXIMUM CONCENTRATION CHANGES FOR EACH ITERATION:
  MAX. CHANGE LAYER,ROW,COL MAX. CHANGE LAYER,ROW,COL MAX. CHANGE LAYER,ROW,COL MAX. CHANGE LAYER,ROW,COL MAX. CHANGE LAYER,ROW,COL
 ------------------------------------------------------------------------------------------------------------------------------------
   0.1125E-01 (  2,  1, 90)  0.1270E-03 (  2,  1, 36)  0.1908E-05 (  3,  1, 36)  0.2011E-07 (  3,  1, 37)


                                          ================================================
                                                         FROM TIME =   160.00     TO    170.00    

 
 SOLVING FOR HEAD 
 FLOW MODEL IS TRANSIENT
 FLOW MODEL CONTAINS CONSTANT-HEAD CELLS


 MAXIMUM STEPSIZE DURING WHICH ANY PARTICLE CANNOT MOVE MORE THAN ONE CELL
 =  4.097    (WHEN MIN. R.F.=1)  AT K=   4, I=   1, J=  36

 MAXIMUM STEPSIZE WHICH MEETS STABILITY CRITERION OF THE ADVECTION TERM
 (FOR PURE FINITE-DIFFERENCE OPTION, MIXELM=0) 
 =  3.210    (WHEN MIN. R.F.=1)  AT K=   2, I=   1, J=  36


 TOTAL NUMBER OF POINT SOURCES/SINKS PRESENT IN THE FLOW MODEL =    62

 MAXIMUM STEPSIZE WHICH MEETS STABILITY CRITERION OF THE SINK & SOURCE TERM
 =  93.13    (WHEN MIN. R.F.=1)  AT K=   2, I=   1, J=   1

 MAXIMUM STEPSIZE WHICH MEETS STABILITY CRITERION OF THE DISPERSION TERM
 =  20.29    (WHEN MIN. R.F.=1)  AT K=   1, I=   1, J=  31


     1 CALLS TO GCG PACKAGE FOR TRANSPORT TIME STEP   1 IN FLOW TIME STEP  17 STRESS PERIOD   1
     6 TOTAL ITERATIONS

 NO OUTPUT CONTROL FOR STRESS PERIOD    1   TIME STEP  17
 
 SOLVING FOR HEAD 
 FLOW MODEL IS TRANSIENT
 FLOW MODEL CONTAINS CONSTANT-HEAD CELLS


 MAXIMUM STEPSIZE DURING WHICH ANY PARTICLE CANNOT MOVE MORE THAN ONE CELL
 =  4.159    (WHEN MIN. R.F.=1)  AT K=   4, I=   1, J=  36

 MAXIMUM STEPSIZE WHICH MEETS STABILITY CRITERION OF THE ADVECTION TERM
 (FOR PURE FINITE-DIFFERENCE OPTION, MIXELM=0) 
 =  3.279    (WHEN MIN. R.F.=1)  AT K=   2, I=   1, J=  36


 TOTAL NUMBER OF POINT SOURCES/SINKS PRESENT IN THE FLOW MODEL =    62

 MAXIMUM STEPSIZE WHICH MEETS STABILITY CRITERION OF THE SINK & SOURCE TERM
 =  91.50    (WHEN MIN. R.F.=1)  AT K=   2, I=   1, J=   1

 MAXIMUM STEPSIZE WHICH MEETS STABILITY CRITERION OF THE DISPERSION TERM
 =  20.29    (WHEN MIN. R.F.=1)  AT K=   1, I=   1, J=  31
     1 CALLS TO GCG PACKAGE FOR TRANSPORT TIME STEP   2 IN FLOW TIME STEP  17 STRESS PERIOD   1
     6 TOTAL ITERATIONS
 
 SOLVING FOR HEAD 
 FLOW MODEL IS TRANSIENT
 FLOW MODEL CONTAINS CONSTANT-HEAD CELLS


 MAXIMUM STEPSIZE DURING WHICH ANY PARTICLE CANNOT MOVE MORE THAN ONE CELL
 =  4.216    (WHEN MIN. R.F.=1)  AT K=   5, I=   1, J=  36

 MAXIMUM STEPSIZE WHICH MEETS STABILITY CRITERION OF THE ADVECTION TERM
 (FOR PURE FINITE-DIFFERENCE OPTION, MIXELM=0) 
 =  3.369    (WHEN MIN. R.F.=1)  AT K=   2, I=   1, J=  36


 TOTAL NUMBER OF POINT SOURCES/SINKS PRESENT IN THE FLOW MODEL =    62

 MAXIMUM STEPSIZE WHICH MEETS STABILITY CRITERION OF THE SINK & SOURCE TERM
 =  90.08    (WHEN MIN. R.F.=1)  AT K=   2, I=   1, J=   1

 MAXIMUM STEPSIZE WHICH MEETS STABILITY CRITERION OF THE DISPERSION TERM
 =  20.29    (WHEN MIN. R.F.=1)  AT K=   1, I=   1, J=  31
     1 CALLS TO GCG PACKAGE FOR TRANSPORT TIME STEP   3 IN FLOW TIME STEP  17 STRESS PERIOD   1
     6 TOTAL ITERATIONS
 
 SOLVING FOR HEAD 
 FLOW MODEL IS TRANSIENT
 FLOW MODEL CONTAINS CONSTANT-HEAD CELLS


 MAXIMUM STEPSIZE DURING WHICH ANY PARTICLE CANNOT MOVE MORE THAN ONE CELL
 =  4.282    (WHEN MIN. R.F.=1)  AT K=   5, I=   1, J=  36

 MAXIMUM STEPSIZE WHICH MEETS STABILITY CRITERION OF THE ADVECTION TERM
 (FOR PURE FINITE-DIFFERENCE OPTION, MIXELM=0) 
 =  3.491    (WHEN MIN. R.F.=1)  AT K=   2, I=   1, J=  36


 TOTAL NUMBER OF POINT SOURCES/SINKS PRESENT IN THE FLOW MODEL =    62

 MAXIMUM STEPSIZE WHICH MEETS STABILITY CRITERION OF THE SINK & SOURCE TERM
 =  87.99    (WHEN MIN. R.F.=1)  AT K=   2, I=   1, J=   1

 MAXIMUM STEPSIZE WHICH MEETS STABILITY CRITERION OF THE DISPERSION TERM
 =  20.29    (WHEN MIN. R.F.=1)  AT K=   1, I=   1, J=  31
     1 CALLS TO GCG PACKAGE FOR TRANSPORT TIME STEP   4 IN FLOW TIME STEP  17 STRESS PERIOD   1
     6 TOTAL ITERATIONS
 
 SOLVING FOR HEAD 
 FLOW MODEL IS TRANSIENT
 FLOW MODEL CONTAINS CONSTANT-HEAD CELLS


 MAXIMUM STEPSIZE DURING WHICH ANY PARTICLE CANNOT MOVE MORE THAN ONE CELL
 =  4.376    (WHEN MIN. R.F.=1)  AT K=   5, I=   1, J=  36

 MAXIMUM STEPSIZE WHICH MEETS STABILITY CRITERION OF THE ADVECTION TERM
 (FOR PURE FINITE-DIFFERENCE OPTION, MIXELM=0) 
 =  3.648    (WHEN MIN. R.F.=1)  AT K=   2, I=   1, J=  36


 TOTAL NUMBER OF POINT SOURCES/SINKS PRESENT IN THE FLOW MODEL =    62

 MAXIMUM STEPSIZE WHICH MEETS STABILITY CRITERION OF THE SINK & SOURCE TERM
 =  86.38    (WHEN MIN. R.F.=1)  AT K=   2, I=   1, J=   1

 MAXIMUM STEPSIZE WHICH MEETS STABILITY CRITERION OF THE DISPERSION TERM
 =  20.29    (WHEN MIN. R.F.=1)  AT K=   1, I=   1, J=  31
     1 CALLS TO GCG PACKAGE FOR TRANSPORT TIME STEP   5 IN FLOW TIME STEP  17 STRESS PERIOD   1
     3 TOTAL ITERATIONS
  MAXIMUM CONCENTRATION CHANGES FOR EACH ITERATION:
  MAX. CHANGE LAYER,ROW,COL MAX. CHANGE LAYER,ROW,COL MAX. CHANGE LAYER,ROW,COL MAX. CHANGE LAYER,ROW,COL MAX. CHANGE LAYER,ROW,COL
 ------------------------------------------------------------------------------------------------------------------------------------
   0.3785E-02 (  2,  1, 37)  0.1524E-04 (  2,  1, 88)  0.7030E-07 (  3,  1, 88)


                                          ================================================
                                                         FROM TIME =   170.00     TO    180.00    

 
 SOLVING FOR HEAD 
 FLOW MODEL IS TRANSIENT
 FLOW MODEL CONTAINS CONSTANT-HEAD CELLS


 MAXIMUM STEPSIZE DURING WHICH ANY PARTICLE CANNOT MOVE MORE THAN ONE CELL
 =  4.388    (WHEN MIN. R.F.=1)  AT K=   5, I=   1, J=  36

 MAXIMUM STEPSIZE WHICH MEETS STABILITY CRITERION OF THE ADVECTION TERM
 (FOR PURE FINITE-DIFFERENCE OPTION, MIXELM=0) 
 =  3.658    (WHEN MIN. R.F.=1)  AT K=   2, I=   1, J=  36


 TOTAL NUMBER OF POINT SOURCES/SINKS PRESENT IN THE FLOW MODEL =    62

 MAXIMUM STEPSIZE WHICH MEETS STABILITY CRITERION OF THE SINK & SOURCE TERM
 =  86.36    (WHEN MIN. R.F.=1)  AT K=   2, I=   1, J=   1

 MAXIMUM STEPSIZE WHICH MEETS STABILITY CRITERION OF THE DISPERSION TERM
 =  20.29    (WHEN MIN. R.F.=1)  AT K=   1, I=   1, J=  31


     1 CALLS TO GCG PACKAGE FOR TRANSPORT TIME STEP   1 IN FLOW TIME STEP  18 STRESS PERIOD   1
     6 TOTAL ITERATIONS

 NO OUTPUT CONTROL FOR STRESS PERIOD    1   TIME STEP  18
 
 SOLVING FOR HEAD 
 FLOW MODEL IS TRANSIENT
 FLOW MODEL CONTAINS CONSTANT-HEAD CELLS


 MAXIMUM STEPSIZE DURING WHICH ANY PARTICLE CANNOT MOVE MORE THAN ONE CELL
 =  4.480    (WHEN MIN. R.F.=1)  AT K=   6, I=   1, J=  36

 MAXIMUM STEPSIZE WHICH MEETS STABILITY CRITERION OF THE ADVECTION TERM
 (FOR PURE FINITE-DIFFERENCE OPTION, MIXELM=0) 
 =  3.840    (WHEN MIN. R.F.=1)  AT K=   2, I=   1, J=  36


 TOTAL NUMBER OF POINT SOURCES/SINKS PRESENT IN THE FLOW MODEL =    62

 MAXIMUM STEPSIZE WHICH MEETS STABILITY CRITERION OF THE SINK & SOURCE TERM
 =  83.87    (WHEN MIN. R.F.=1)  AT K=   2, I=   1, J=   1

 MAXIMUM STEPSIZE WHICH MEETS STABILITY CRITERION OF THE DISPERSION TERM
 =  20.29    (WHEN MIN. R.F.=1)  AT K=   1, I=   1, J=  31
     1 CALLS TO GCG PACKAGE FOR TRANSPORT TIME STEP   2 IN FLOW TIME STEP  18 STRESS PERIOD   1
     6 TOTAL ITERATIONS
 
 SOLVING FOR HEAD 
 FLOW MODEL IS TRANSIENT
 FLOW MODEL CONTAINS CONSTANT-HEAD CELLS


 MAXIMUM STEPSIZE DURING WHICH ANY PARTICLE CANNOT MOVE MORE THAN ONE CELL
 =  4.594    (WHEN MIN. R.F.=1)  AT K=   6, I=   1, J=  36

 MAXIMUM STEPSIZE WHICH MEETS STABILITY CRITERION OF THE ADVECTION TERM
 (FOR PURE FINITE-DIFFERENCE OPTION, MIXELM=0) 
 =  3.734    (WHEN MIN. R.F.=1)  AT K=   2, I=   1, J=  88


 TOTAL NUMBER OF POINT SOURCES/SINKS PRESENT IN THE FLOW MODEL =    62

 MAXIMUM STEPSIZE WHICH MEETS STABILITY CRITERION OF THE SINK & SOURCE TERM
 =  81.79    (WHEN MIN. R.F.=1)  AT K=   2, I=   1, J= 120

 MAXIMUM STEPSIZE WHICH MEETS STABILITY CRITERION OF THE DISPERSION TERM
 =  20.29    (WHEN MIN. R.F.=1)  AT K=   1, I=   1, J=  31
     1 CALLS TO GCG PACKAGE FOR TRANSPORT TIME STEP   3 IN FLOW TIME STEP  18 STRESS PERIOD   1
     6 TOTAL ITERATIONS
 
 SOLVING FOR HEAD 
 FLOW MODEL IS TRANSIENT
 FLOW MODEL CONTAINS CONSTANT-HEAD CELLS


 MAXIMUM STEPSIZE DURING WHICH ANY PARTICLE CANNOT MOVE MORE THAN ONE CELL
 =  4.704    (WHEN MIN. R.F.=1)  AT K=   7, I=   1, J=  36

 MAXIMUM STEPSIZE WHICH MEETS STABILITY CRITERION OF THE ADVECTION TERM
 (FOR PURE FINITE-DIFFERENCE OPTION, MIXELM=0) 
 =  3.596    (WHEN MIN. R.F.=1)  AT K=   2, I=   1, J=  88


 TOTAL NUMBER OF POINT SOURCES/SINKS PRESENT IN THE FLOW MODEL =    62

 MAXIMUM STEPSIZE WHICH MEETS STABILITY CRITERION OF THE SINK & SOURCE TERM
 =  78.45    (WHEN MIN. R.F.=1)  AT K=   2, I=   1, J= 120

 MAXIMUM STEPSIZE WHICH MEETS STABILITY CRITERION OF THE DISPERSION TERM
 =  20.29    (WHEN MIN. R.F.=1)  AT K=   1, I=   1, J=  31
     1 CALLS TO GCG PACKAGE FOR TRANSPORT TIME STEP   4 IN FLOW TIME STEP  18 STRESS PERIOD   1
     5 TOTAL ITERATIONS
  MAXIMUM CONCENTRATION CHANGES FOR EACH ITERATION:
  MAX. CHANGE LAYER,ROW,COL MAX. CHANGE LAYER,ROW,COL MAX. CHANGE LAYER,ROW,COL MAX. CHANGE LAYER,ROW,COL MAX. CHANGE LAYER,ROW,COL
 ------------------------------------------------------------------------------------------------------------------------------------
   0.2938E-01 (  2,  1, 89)  0.7948E-03 (  2,  1, 88)  0.2902E-04 (  3,  1, 88)  0.1049E-05 (  3,  1, 87)  0.3703E-07 (  4,  1, 87)


                                          ================================================
                                                         FROM TIME =   180.00     TO    190.00    

 
 SOLVING FOR HEAD 
 FLOW MODEL IS TRANSIENT
 FLOW MODEL CONTAINS CONSTANT-HEAD CELLS


 MAXIMUM STEPSIZE DURING WHICH ANY PARTICLE CANNOT MOVE MORE THAN ONE CELL
 =  4.778    (WHEN MIN. R.F.=1)  AT K=   7, I=   1, J=  36

 MAXIMUM STEPSIZE WHICH MEETS STABILITY CRITERION OF THE ADVECTION TERM
 (FOR PURE FINITE-DIFFERENCE OPTION, MIXELM=0) 
 =  3.585    (WHEN MIN. R.F.=1)  AT K=   2, I=   1, J=  88


 TOTAL NUMBER OF POINT SOURCES/SINKS PRESENT IN THE FLOW MODEL =    62

 MAXIMUM STEPSIZE WHICH MEETS STABILITY CRITERION OF THE SINK & SOURCE TERM
 =  76.13    (WHEN MIN. R.F.=1)  AT K=   2, I=   1, J= 120

 MAXIMUM STEPSIZE WHICH MEETS STABILITY CRITERION OF THE DISPERSION TERM
 =  20.29    (WHEN MIN. R.F.=1)  AT K=   1, I=   1, J=  31


     1 CALLS TO GCG PACKAGE FOR TRANSPORT TIME STEP   1 IN FLOW TIME STEP  19 STRESS PERIOD   1
     6 TOTAL ITERATIONS

 NO OUTPUT CONTROL FOR STRESS PERIOD    1   TIME STEP  19
 
 SOLVING FOR HEAD 
 FLOW MODEL IS TRANSIENT
 FLOW MODEL CONTAINS CONSTANT-HEAD CELLS


 MAXIMUM STEPSIZE DURING WHICH ANY PARTICLE CANNOT MOVE MORE THAN ONE CELL
 =  4.879    (WHEN MIN. R.F.=1)  AT K=   8, I=   1, J=  36

 MAXIMUM STEPSIZE WHICH MEETS STABILITY CRITERION OF THE ADVECTION TERM
 (FOR PURE FINITE-DIFFERENCE OPTION, MIXELM=0) 
 =  3.633    (WHEN MIN. R.F.=1)  AT K=   2, I=   1, J=  88


 TOTAL NUMBER OF POINT SOURCES/SINKS PRESENT IN THE FLOW MODEL =    62

 MAXIMUM STEPSIZE WHICH MEETS STABILITY CRITERION OF THE SINK & SOURCE TERM
 =  71.71    (WHEN MIN. R.F.=1)  AT K=   2, I=   1, J= 120

 MAXIMUM STEPSIZE WHICH MEETS STABILITY CRITERION OF THE DISPERSION TERM
 =  20.29    (WHEN MIN. R.F.=1)  AT K=   1, I=   1, J=  31
     1 CALLS TO GCG PACKAGE FOR TRANSPORT TIME STEP   2 IN FLOW TIME STEP  19 STRESS PERIOD   1
     6 TOTAL ITERATIONS
 
 SOLVING FOR HEAD 
 FLOW MODEL IS TRANSIENT
 FLOW MODEL CONTAINS CONSTANT-HEAD CELLS


 MAXIMUM STEPSIZE DURING WHICH ANY PARTICLE CANNOT MOVE MORE THAN ONE CELL
 =  4.971    (WHEN MIN. R.F.=1)  AT K=  11, I=   1, J=  36

 MAXIMUM STEPSIZE WHICH MEETS STABILITY CRITERION OF THE ADVECTION TERM
 (FOR PURE FINITE-DIFFERENCE OPTION, MIXELM=0) 
 =  3.768    (WHEN MIN. R.F.=1)  AT K=   2, I=   1, J=  88


 TOTAL NUMBER OF POINT SOURCES/SINKS PRESENT IN THE FLOW MODEL =    62

 MAXIMUM STEPSIZE WHICH MEETS STABILITY CRITERION OF THE SINK & SOURCE TERM
 =  68.25    (WHEN MIN. R.F.=1)  AT K=   2, I=   1, J= 120

 MAXIMUM STEPSIZE WHICH MEETS STABILITY CRITERION OF THE DISPERSION TERM
 =  20.29    (WHEN MIN. R.F.=1)  AT K=   1, I=   1, J=  31
     1 CALLS TO GCG PACKAGE FOR TRANSPORT TIME STEP   3 IN FLOW TIME STEP  19 STRESS PERIOD   1
     6 TOTAL ITERATIONS
 
 SOLVING FOR HEAD 
 FLOW MODEL IS TRANSIENT
 FLOW MODEL CONTAINS CONSTANT-HEAD CELLS


 MAXIMUM STEPSIZE DURING WHICH ANY PARTICLE CANNOT MOVE MORE THAN ONE CELL
 =  5.023    (WHEN MIN. R.F.=1)  AT K=  11, I=   1, J=  36

 MAXIMUM STEPSIZE WHICH MEETS STABILITY CRITERION OF THE ADVECTION TERM
 (FOR PURE FINITE-DIFFERENCE OPTION, MIXELM=0) 
 =  3.897    (WHEN MIN. R.F.=1)  AT K=   2, I=   1, J=  90


 TOTAL NUMBER OF POINT SOURCES/SINKS PRESENT IN THE FLOW MODEL =    62

 MAXIMUM STEPSIZE WHICH MEETS STABILITY CRITERION OF THE SINK & SOURCE TERM
 =  65.25    (WHEN MIN. R.F.=1)  AT K=   2, I=   1, J= 120

 MAXIMUM STEPSIZE WHICH MEETS STABILITY CRITERION OF THE DISPERSION TERM
 =  20.29    (WHEN MIN. R.F.=1)  AT K=   1, I=   1, J=  31
     1 CALLS TO GCG PACKAGE FOR TRANSPORT TIME STEP   4 IN FLOW TIME STEP  19 STRESS PERIOD   1
     5 TOTAL ITERATIONS
  MAXIMUM CONCENTRATION CHANGES FOR EACH ITERATION:
  MAX. CHANGE LAYER,ROW,COL MAX. CHANGE LAYER,ROW,COL MAX. CHANGE LAYER,ROW,COL MAX. CHANGE LAYER,ROW,COL MAX. CHANGE LAYER,ROW,COL
 ------------------------------------------------------------------------------------------------------------------------------------
   0.3247E-01 (  2,  1, 89)  0.7811E-03 (  3,  1, 83)  0.2630E-04 (  3,  1, 30)  0.1111E-05 (  3,  1, 34)  0.4668E-07 (  4,  1, 86)


                                          ================================================
                                                         FROM TIME =   190.00     TO    200.00    

 
 SOLVING FOR HEAD 
 FLOW MODEL IS TRANSIENT
 FLOW MODEL CONTAINS CONSTANT-HEAD CELLS


 MAXIMUM STEPSIZE DURING WHICH ANY PARTICLE CANNOT MOVE MORE THAN ONE CELL
 =  5.018    (WHEN MIN. R.F.=1)  AT K=   3, I=   1, J=  35

 MAXIMUM STEPSIZE WHICH MEETS STABILITY CRITERION OF THE ADVECTION TERM
 (FOR PURE FINITE-DIFFERENCE OPTION, MIXELM=0) 
 =  3.866    (WHEN MIN. R.F.=1)  AT K=   2, I=   1, J=  35


 TOTAL NUMBER OF POINT SOURCES/SINKS PRESENT IN THE FLOW MODEL =    62

 MAXIMUM STEPSIZE WHICH MEETS STABILITY CRITERION OF THE SINK & SOURCE TERM
 =  63.64    (WHEN MIN. R.F.=1)  AT K=   2, I=   1, J= 120

 MAXIMUM STEPSIZE WHICH MEETS STABILITY CRITERION OF THE DISPERSION TERM
 =  20.29    (WHEN MIN. R.F.=1)  AT K=   1, I=   1, J=  31


     1 CALLS TO GCG PACKAGE FOR TRANSPORT TIME STEP   1 IN FLOW TIME STEP  20 STRESS PERIOD   1
     6 TOTAL ITERATIONS

 NO OUTPUT CONTROL FOR STRESS PERIOD    1   TIME STEP  20
 
 SOLVING FOR HEAD 
 FLOW MODEL IS TRANSIENT
 FLOW MODEL CONTAINS CONSTANT-HEAD CELLS


 MAXIMUM STEPSIZE DURING WHICH ANY PARTICLE CANNOT MOVE MORE THAN ONE CELL
 =  4.729    (WHEN MIN. R.F.=1)  AT K=   3, I=   1, J=  35

 MAXIMUM STEPSIZE WHICH MEETS STABILITY CRITERION OF THE ADVECTION TERM
 (FOR PURE FINITE-DIFFERENCE OPTION, MIXELM=0) 
 =  3.680    (WHEN MIN. R.F.=1)  AT K=   2, I=   1, J=  35


 TOTAL NUMBER OF POINT SOURCES/SINKS PRESENT IN THE FLOW MODEL =    62

 MAXIMUM STEPSIZE WHICH MEETS STABILITY CRITERION OF THE SINK & SOURCE TERM
 =  60.19    (WHEN MIN. R.F.=1)  AT K=   2, I=   1, J= 120

 MAXIMUM STEPSIZE WHICH MEETS STABILITY CRITERION OF THE DISPERSION TERM
 =  20.29    (WHEN MIN. R.F.=1)  AT K=   1, I=   1, J=  31
     1 CALLS TO GCG PACKAGE FOR TRANSPORT TIME STEP   2 IN FLOW TIME STEP  20 STRESS PERIOD   1
     6 TOTAL ITERATIONS
 
 SOLVING FOR HEAD 
 FLOW MODEL IS TRANSIENT
 FLOW MODEL CONTAINS CONSTANT-HEAD CELLS


 MAXIMUM STEPSIZE DURING WHICH ANY PARTICLE CANNOT MOVE MORE THAN ONE CELL
 =  4.515    (WHEN MIN. R.F.=1)  AT K=   4, I=   1, J=  35

 MAXIMUM STEPSIZE WHICH MEETS STABILITY CRITERION OF THE ADVECTION TERM
 (FOR PURE FINITE-DIFFERENCE OPTION, MIXELM=0) 
 =  3.549    (WHEN MIN. R.F.=1)  AT K=   2, I=   1, J=  35


 TOTAL NUMBER OF POINT SOURCES/SINKS PRESENT IN THE FLOW MODEL =    62

 MAXIMUM STEPSIZE WHICH MEETS STABILITY CRITERION OF THE SINK & SOURCE TERM
 =  58.50    (WHEN MIN. R.F.=1)  AT K=   2, I=   1, J= 120

 MAXIMUM STEPSIZE WHICH MEETS STABILITY CRITERION OF THE DISPERSION TERM
 =  20.29    (WHEN MIN. R.F.=1)  AT K=   1, I=   1, J=  31
     1 CALLS TO GCG PACKAGE FOR TRANSPORT TIME STEP   3 IN FLOW TIME STEP  20 STRESS PERIOD   1
     6 TOTAL ITERATIONS
 
 SOLVING FOR HEAD 
 FLOW MODEL IS TRANSIENT
 FLOW MODEL CONTAINS CONSTANT-HEAD CELLS


 MAXIMUM STEPSIZE DURING WHICH ANY PARTICLE CANNOT MOVE MORE THAN ONE CELL
 =  4.334    (WHEN MIN. R.F.=1)  AT K=   4, I=   1, J=  35

 MAXIMUM STEPSIZE WHICH MEETS STABILITY CRITERION OF THE ADVECTION TERM
 (FOR PURE FINITE-DIFFERENCE OPTION, MIXELM=0) 
 =  3.391    (WHEN MIN. R.F.=1)  AT K=   2, I=   1, J=  42


 TOTAL NUMBER OF POINT SOURCES/SINKS PRESENT IN THE FLOW MODEL =    62

 MAXIMUM STEPSIZE WHICH MEETS STABILITY CRITERION OF THE SINK & SOURCE TERM
 =  57.01    (WHEN MIN. R.F.=1)  AT K=   2, I=   1, J= 120

 MAXIMUM STEPSIZE WHICH MEETS STABILITY CRITERION OF THE DISPERSION TERM
 =  20.29    (WHEN MIN. R.F.=1)  AT K=   1, I=   1, J=  31
     1 CALLS TO GCG PACKAGE FOR TRANSPORT TIME STEP   4 IN FLOW TIME STEP  20 STRESS PERIOD   1
     5 TOTAL ITERATIONS
  MAXIMUM CONCENTRATION CHANGES FOR EACH ITERATION:
  MAX. CHANGE LAYER,ROW,COL MAX. CHANGE LAYER,ROW,COL MAX. CHANGE LAYER,ROW,COL MAX. CHANGE LAYER,ROW,COL MAX. CHANGE LAYER,ROW,COL
 ------------------------------------------------------------------------------------------------------------------------------------
   0.2003E-01 (  2,  1, 44)  0.4362E-03 (  3,  1, 38)  0.1467E-04 (  2,  1, 89)  0.4166E-06 (  3,  1, 89)  0.1427E-07 (  4,  1, 80)


                                          ================================================
                                                         FROM TIME =   200.00     TO    210.00    

 
 SOLVING FOR HEAD 
 FLOW MODEL IS TRANSIENT
 FLOW MODEL CONTAINS CONSTANT-HEAD CELLS


 MAXIMUM STEPSIZE DURING WHICH ANY PARTICLE CANNOT MOVE MORE THAN ONE CELL
 =  4.279    (WHEN MIN. R.F.=1)  AT K=   4, I=   1, J=  35

 MAXIMUM STEPSIZE WHICH MEETS STABILITY CRITERION OF THE ADVECTION TERM
 (FOR PURE FINITE-DIFFERENCE OPTION, MIXELM=0) 
 =  3.288    (WHEN MIN. R.F.=1)  AT K=   2, I=   1, J=  42


 TOTAL NUMBER OF POINT SOURCES/SINKS PRESENT IN THE FLOW MODEL =    62

 MAXIMUM STEPSIZE WHICH MEETS STABILITY CRITERION OF THE SINK & SOURCE TERM
 =  57.39    (WHEN MIN. R.F.=1)  AT K=   2, I=   1, J= 120

 MAXIMUM STEPSIZE WHICH MEETS STABILITY CRITERION OF THE DISPERSION TERM
 =  20.29    (WHEN MIN. R.F.=1)  AT K=   1, I=   1, J=  31


     1 CALLS TO GCG PACKAGE FOR TRANSPORT TIME STEP   1 IN FLOW TIME STEP  21 STRESS PERIOD   1
     6 TOTAL ITERATIONS

 NO OUTPUT CONTROL FOR STRESS PERIOD    1   TIME STEP  21
 
 SOLVING FOR HEAD 
 FLOW MODEL IS TRANSIENT
 FLOW MODEL CONTAINS CONSTANT-HEAD CELLS


 MAXIMUM STEPSIZE DURING WHICH ANY PARTICLE CANNOT MOVE MORE THAN ONE CELL
 =  4.233    (WHEN MIN. R.F.=1)  AT K=   4, I=   1, J=  35

 MAXIMUM STEPSIZE WHICH MEETS STABILITY CRITERION OF THE ADVECTION TERM
 (FOR PURE FINITE-DIFFERENCE OPTION, MIXELM=0) 
 =  3.134    (WHEN MIN. R.F.=1)  AT K=   2, I=   1, J=  87


 TOTAL NUMBER OF POINT SOURCES/SINKS PRESENT IN THE FLOW MODEL =    62

 MAXIMUM STEPSIZE WHICH MEETS STABILITY CRITERION OF THE SINK & SOURCE TERM
 =  54.59    (WHEN MIN. R.F.=1)  AT K=   2, I=   1, J= 120

 MAXIMUM STEPSIZE WHICH MEETS STABILITY CRITERION OF THE DISPERSION TERM
 =  20.29    (WHEN MIN. R.F.=1)  AT K=   1, I=   1, J=  31
     1 CALLS TO GCG PACKAGE FOR TRANSPORT TIME STEP   2 IN FLOW TIME STEP  21 STRESS PERIOD   1
     6 TOTAL ITERATIONS
 
 SOLVING FOR HEAD 
 FLOW MODEL IS TRANSIENT
 FLOW MODEL CONTAINS CONSTANT-HEAD CELLS


 MAXIMUM STEPSIZE DURING WHICH ANY PARTICLE CANNOT MOVE MORE THAN ONE CELL
 =  4.231    (WHEN MIN. R.F.=1)  AT K=   4, I=   1, J=  35

 MAXIMUM STEPSIZE WHICH MEETS STABILITY CRITERION OF THE ADVECTION TERM
 (FOR PURE FINITE-DIFFERENCE OPTION, MIXELM=0) 
 =  3.046    (WHEN MIN. R.F.=1)  AT K=   2, I=   1, J=  87


 TOTAL NUMBER OF POINT SOURCES/SINKS PRESENT IN THE FLOW MODEL =    62

 MAXIMUM STEPSIZE WHICH MEETS STABILITY CRITERION OF THE SINK & SOURCE TERM
 =  53.43    (WHEN MIN. R.F.=1)  AT K=   2, I=   1, J= 120

 MAXIMUM STEPSIZE WHICH MEETS STABILITY CRITERION OF THE DISPERSION TERM
 =  20.29    (WHEN MIN. R.F.=1)  AT K=   1, I=   1, J=  31
     1 CALLS TO GCG PACKAGE FOR TRANSPORT TIME STEP   3 IN FLOW TIME STEP  21 STRESS PERIOD   1
     6 TOTAL ITERATIONS
 
 SOLVING FOR HEAD 
 FLOW MODEL IS TRANSIENT
 FLOW MODEL CONTAINS CONSTANT-HEAD CELLS


 MAXIMUM STEPSIZE DURING WHICH ANY PARTICLE CANNOT MOVE MORE THAN ONE CELL
 =  4.230    (WHEN MIN. R.F.=1)  AT K=   4, I=   1, J=  35

 MAXIMUM STEPSIZE WHICH MEETS STABILITY CRITERION OF THE ADVECTION TERM
 (FOR PURE FINITE-DIFFERENCE OPTION, MIXELM=0) 
 =  3.020    (WHEN MIN. R.F.=1)  AT K=   2, I=   1, J=  87


 TOTAL NUMBER OF POINT SOURCES/SINKS PRESENT IN THE FLOW MODEL =    62

 MAXIMUM STEPSIZE WHICH MEETS STABILITY CRITERION OF THE SINK & SOURCE TERM
 =  52.22    (WHEN MIN. R.F.=1)  AT K=   2, I=   1, J= 120

 MAXIMUM STEPSIZE WHICH MEETS STABILITY CRITERION OF THE DISPERSION TERM
 =  20.29    (WHEN MIN. R.F.=1)  AT K=   1, I=   1, J=  31
     1 CALLS TO GCG PACKAGE FOR TRANSPORT TIME STEP   4 IN FLOW TIME STEP  21 STRESS PERIOD   1
     6 TOTAL ITERATIONS
 
 SOLVING FOR HEAD 
 FLOW MODEL IS TRANSIENT
 FLOW MODEL CONTAINS CONSTANT-HEAD CELLS


 MAXIMUM STEPSIZE DURING WHICH ANY PARTICLE CANNOT MOVE MORE THAN ONE CELL
 =  4.236    (WHEN MIN. R.F.=1)  AT K=   4, I=   1, J=  35

 MAXIMUM STEPSIZE WHICH MEETS STABILITY CRITERION OF THE ADVECTION TERM
 (FOR PURE FINITE-DIFFERENCE OPTION, MIXELM=0) 
 =  3.047    (WHEN MIN. R.F.=1)  AT K=   2, I=   1, J=  87


 TOTAL NUMBER OF POINT SOURCES/SINKS PRESENT IN THE FLOW MODEL =    62

 MAXIMUM STEPSIZE WHICH MEETS STABILITY CRITERION OF THE SINK & SOURCE TERM
 =  51.30    (WHEN MIN. R.F.=1)  AT K=   2, I=   1, J= 120

 MAXIMUM STEPSIZE WHICH MEETS STABILITY CRITERION OF THE DISPERSION TERM
 =  20.29    (WHEN MIN. R.F.=1)  AT K=   1, I=   1, J=  31
     1 CALLS TO GCG PACKAGE FOR TRANSPORT TIME STEP   5 IN FLOW TIME STEP  21 STRESS PERIOD   1
     4 TOTAL ITERATIONS
  MAXIMUM CONCENTRATION CHANGES FOR EACH ITERATION:
  MAX. CHANGE LAYER,ROW,COL MAX. CHANGE LAYER,ROW,COL MAX. CHANGE LAYER,ROW,COL MAX. CHANGE LAYER,ROW,COL MAX. CHANGE LAYER,ROW,COL
 ------------------------------------------------------------------------------------------------------------------------------------
   0.6293E-02 (  2,  1, 88)  0.3033E-04 (  2,  1, 42)  0.2788E-06 (  2,  1, 89)  0.2242E-08 (  3,  1, 89)


                                          ================================================
                                                         FROM TIME =   210.00     TO    220.00    

 
 SOLVING FOR HEAD 
 FLOW MODEL IS TRANSIENT
 FLOW MODEL CONTAINS CONSTANT-HEAD CELLS


 MAXIMUM STEPSIZE DURING WHICH ANY PARTICLE CANNOT MOVE MORE THAN ONE CELL
 =  4.234    (WHEN MIN. R.F.=1)  AT K=   4, I=   1, J=  35

 MAXIMUM STEPSIZE WHICH MEETS STABILITY CRITERION OF THE ADVECTION TERM
 (FOR PURE FINITE-DIFFERENCE OPTION, MIXELM=0) 
 =  3.054    (WHEN MIN. R.F.=1)  AT K=   2, I=   1, J=  87


 TOTAL NUMBER OF POINT SOURCES/SINKS PRESENT IN THE FLOW MODEL =    62

 MAXIMUM STEPSIZE WHICH MEETS STABILITY CRITERION OF THE SINK & SOURCE TERM
 =  54.37    (WHEN MIN. R.F.=1)  AT K=   2, I=   1, J= 120

 MAXIMUM STEPSIZE WHICH MEETS STABILITY CRITERION OF THE DISPERSION TERM
 =  20.29    (WHEN MIN. R.F.=1)  AT K=   1, I=   1, J=  31


     1 CALLS TO GCG PACKAGE FOR TRANSPORT TIME STEP   1 IN FLOW TIME STEP  22 STRESS PERIOD   1
     6 TOTAL ITERATIONS

 NO OUTPUT CONTROL FOR STRESS PERIOD    1   TIME STEP  22
 
 SOLVING FOR HEAD 
 FLOW MODEL IS TRANSIENT
 FLOW MODEL CONTAINS CONSTANT-HEAD CELLS


 MAXIMUM STEPSIZE DURING WHICH ANY PARTICLE CANNOT MOVE MORE THAN ONE CELL
 =  4.237    (WHEN MIN. R.F.=1)  AT K=   4, I=   1, J=  35

 MAXIMUM STEPSIZE WHICH MEETS STABILITY CRITERION OF THE ADVECTION TERM
 (FOR PURE FINITE-DIFFERENCE OPTION, MIXELM=0) 
 =  3.112    (WHEN MIN. R.F.=1)  AT K=   2, I=   1, J=  87


 TOTAL NUMBER OF POINT SOURCES/SINKS PRESENT IN THE FLOW MODEL =    62

 MAXIMUM STEPSIZE WHICH MEETS STABILITY CRITERION OF THE SINK & SOURCE TERM
 =  50.78    (WHEN MIN. R.F.=1)  AT K=   2, I=   1, J= 120

 MAXIMUM STEPSIZE WHICH MEETS STABILITY CRITERION OF THE DISPERSION TERM
 =  20.29    (WHEN MIN. R.F.=1)  AT K=   1, I=   1, J=  31
     1 CALLS TO GCG PACKAGE FOR TRANSPORT TIME STEP   2 IN FLOW TIME STEP  22 STRESS PERIOD   1
     6 TOTAL ITERATIONS
 
 SOLVING FOR HEAD 
 FLOW MODEL IS TRANSIENT
 FLOW MODEL CONTAINS CONSTANT-HEAD CELLS


 MAXIMUM STEPSIZE DURING WHICH ANY PARTICLE CANNOT MOVE MORE THAN ONE CELL
 =  4.233    (WHEN MIN. R.F.=1)  AT K=   4, I=   1, J=  35

 MAXIMUM STEPSIZE WHICH MEETS STABILITY CRITERION OF THE ADVECTION TERM
 (FOR PURE FINITE-DIFFERENCE OPTION, MIXELM=0) 
 =  3.215    (WHEN MIN. R.F.=1)  AT K=   2, I=   1, J=  87


 TOTAL NUMBER OF POINT SOURCES/SINKS PRESENT IN THE FLOW MODEL =    62

 MAXIMUM STEPSIZE WHICH MEETS STABILITY CRITERION OF THE SINK & SOURCE TERM
 =  49.60    (WHEN MIN. R.F.=1)  AT K=   2, I=   1, J= 120

 MAXIMUM STEPSIZE WHICH MEETS STABILITY CRITERION OF THE DISPERSION TERM
 =  20.29    (WHEN MIN. R.F.=1)  AT K=   1, I=   1, J=  31
     1 CALLS TO GCG PACKAGE FOR TRANSPORT TIME STEP   3 IN FLOW TIME STEP  22 STRESS PERIOD   1
     6 TOTAL ITERATIONS
 
 SOLVING FOR HEAD 
 FLOW MODEL IS TRANSIENT
 FLOW MODEL CONTAINS CONSTANT-HEAD CELLS


 MAXIMUM STEPSIZE DURING WHICH ANY PARTICLE CANNOT MOVE MORE THAN ONE CELL
 =  4.218    (WHEN MIN. R.F.=1)  AT K=   4, I=   1, J=  35

 MAXIMUM STEPSIZE WHICH MEETS STABILITY CRITERION OF THE ADVECTION TERM
 (FOR PURE FINITE-DIFFERENCE OPTION, MIXELM=0) 
 =  3.337    (WHEN MIN. R.F.=1)  AT K=   2, I=   1, J=  87


 TOTAL NUMBER OF POINT SOURCES/SINKS PRESENT IN THE FLOW MODEL =    62

 MAXIMUM STEPSIZE WHICH MEETS STABILITY CRITERION OF THE SINK & SOURCE TERM
 =  48.80    (WHEN MIN. R.F.=1)  AT K=   2, I=   1, J= 120

 MAXIMUM STEPSIZE WHICH MEETS STABILITY CRITERION OF THE DISPERSION TERM
 =  20.29    (WHEN MIN. R.F.=1)  AT K=   1, I=   1, J=  31
     1 CALLS TO GCG PACKAGE FOR TRANSPORT TIME STEP   4 IN FLOW TIME STEP  22 STRESS PERIOD   1
     6 TOTAL ITERATIONS
 
 SOLVING FOR HEAD 
 FLOW MODEL IS TRANSIENT
 FLOW MODEL CONTAINS CONSTANT-HEAD CELLS


 MAXIMUM STEPSIZE DURING WHICH ANY PARTICLE CANNOT MOVE MORE THAN ONE CELL
 =  4.181    (WHEN MIN. R.F.=1)  AT K=   4, I=   1, J=  35

 MAXIMUM STEPSIZE WHICH MEETS STABILITY CRITERION OF THE ADVECTION TERM
 (FOR PURE FINITE-DIFFERENCE OPTION, MIXELM=0) 
 =  3.376    (WHEN MIN. R.F.=1)  AT K=   2, I=   1, J=  49


 TOTAL NUMBER OF POINT SOURCES/SINKS PRESENT IN THE FLOW MODEL =    62

 MAXIMUM STEPSIZE WHICH MEETS STABILITY CRITERION OF THE SINK & SOURCE TERM
 =  48.02    (WHEN MIN. R.F.=1)  AT K=   2, I=   1, J= 120

 MAXIMUM STEPSIZE WHICH MEETS STABILITY CRITERION OF THE DISPERSION TERM
 =  20.29    (WHEN MIN. R.F.=1)  AT K=   1, I=   1, J=  31
     1 CALLS TO GCG PACKAGE FOR TRANSPORT TIME STEP   5 IN FLOW TIME STEP  22 STRESS PERIOD   1
     4 TOTAL ITERATIONS
  MAXIMUM CONCENTRATION CHANGES FOR EACH ITERATION:
  MAX. CHANGE LAYER,ROW,COL MAX. CHANGE LAYER,ROW,COL MAX. CHANGE LAYER,ROW,COL MAX. CHANGE LAYER,ROW,COL MAX. CHANGE LAYER,ROW,COL
 ------------------------------------------------------------------------------------------------------------------------------------
   0.1176E-01 (  2,  1, 43)  0.1252E-03 (  2,  1, 35)  0.1821E-05 (  3,  1, 86)  0.2715E-07 (  4,  1, 76)


                                          ================================================
                                                         FROM TIME =   220.00     TO    230.00    

 
 SOLVING FOR HEAD 
 FLOW MODEL IS TRANSIENT
 FLOW MODEL CONTAINS CONSTANT-HEAD CELLS


 MAXIMUM STEPSIZE DURING WHICH ANY PARTICLE CANNOT MOVE MORE THAN ONE CELL
 =  4.169    (WHEN MIN. R.F.=1)  AT K=   4, I=   1, J=  35

 MAXIMUM STEPSIZE WHICH MEETS STABILITY CRITERION OF THE ADVECTION TERM
 (FOR PURE FINITE-DIFFERENCE OPTION, MIXELM=0) 
 =  3.390    (WHEN MIN. R.F.=1)  AT K=   2, I=   1, J=  49


 TOTAL NUMBER OF POINT SOURCES/SINKS PRESENT IN THE FLOW MODEL =    62

 MAXIMUM STEPSIZE WHICH MEETS STABILITY CRITERION OF THE SINK & SOURCE TERM
 =  51.03    (WHEN MIN. R.F.=1)  AT K=   2, I=   1, J= 120

 MAXIMUM STEPSIZE WHICH MEETS STABILITY CRITERION OF THE DISPERSION TERM
 =  20.29    (WHEN MIN. R.F.=1)  AT K=   1, I=   1, J=  31


     1 CALLS TO GCG PACKAGE FOR TRANSPORT TIME STEP   1 IN FLOW TIME STEP  23 STRESS PERIOD   1
     6 TOTAL ITERATIONS

 NO OUTPUT CONTROL FOR STRESS PERIOD    1   TIME STEP  23
 
 SOLVING FOR HEAD 
 FLOW MODEL IS TRANSIENT
 FLOW MODEL CONTAINS CONSTANT-HEAD CELLS


 MAXIMUM STEPSIZE DURING WHICH ANY PARTICLE CANNOT MOVE MORE THAN ONE CELL
 =  4.114    (WHEN MIN. R.F.=1)  AT K=   4, I=   1, J=  35

 MAXIMUM STEPSIZE WHICH MEETS STABILITY CRITERION OF THE ADVECTION TERM
 (FOR PURE FINITE-DIFFERENCE OPTION, MIXELM=0) 
 =  3.473    (WHEN MIN. R.F.=1)  AT K=   2, I=   1, J=  49


 TOTAL NUMBER OF POINT SOURCES/SINKS PRESENT IN THE FLOW MODEL =    62

 MAXIMUM STEPSIZE WHICH MEETS STABILITY CRITERION OF THE SINK & SOURCE TERM
 =  47.39    (WHEN MIN. R.F.=1)  AT K=   2, I=   1, J= 120

 MAXIMUM STEPSIZE WHICH MEETS STABILITY CRITERION OF THE DISPERSION TERM
 =  20.29    (WHEN MIN. R.F.=1)  AT K=   1, I=   1, J=  31
     1 CALLS TO GCG PACKAGE FOR TRANSPORT TIME STEP   2 IN FLOW TIME STEP  23 STRESS PERIOD   1
     6 TOTAL ITERATIONS
 
 SOLVING FOR HEAD 
 FLOW MODEL IS TRANSIENT
 FLOW MODEL CONTAINS CONSTANT-HEAD CELLS


 MAXIMUM STEPSIZE DURING WHICH ANY PARTICLE CANNOT MOVE MORE THAN ONE CELL
 =  4.040    (WHEN MIN. R.F.=1)  AT K=   4, I=   1, J=  35

 MAXIMUM STEPSIZE WHICH MEETS STABILITY CRITERION OF THE ADVECTION TERM
 (FOR PURE FINITE-DIFFERENCE OPTION, MIXELM=0) 
 =  3.312    (WHEN MIN. R.F.=1)  AT K=   2, I=   1, J=  41


 TOTAL NUMBER OF POINT SOURCES/SINKS PRESENT IN THE FLOW MODEL =    62

 MAXIMUM STEPSIZE WHICH MEETS STABILITY CRITERION OF THE SINK & SOURCE TERM
 =  46.72    (WHEN MIN. R.F.=1)  AT K=   2, I=   1, J= 120

 MAXIMUM STEPSIZE WHICH MEETS STABILITY CRITERION OF THE DISPERSION TERM
 =  20.29    (WHEN MIN. R.F.=1)  AT K=   1, I=   1, J=  31
     1 CALLS TO GCG PACKAGE FOR TRANSPORT TIME STEP   3 IN FLOW TIME STEP  23 STRESS PERIOD   1
     6 TOTAL ITERATIONS
 
 SOLVING FOR HEAD 
 FLOW MODEL IS TRANSIENT
 FLOW MODEL CONTAINS CONSTANT-HEAD CELLS


 MAXIMUM STEPSIZE DURING WHICH ANY PARTICLE CANNOT MOVE MORE THAN ONE CELL
 =  3.966    (WHEN MIN. R.F.=1)  AT K=   4, I=   1, J=  35

 MAXIMUM STEPSIZE WHICH MEETS STABILITY CRITERION OF THE ADVECTION TERM
 (FOR PURE FINITE-DIFFERENCE OPTION, MIXELM=0) 
 =  3.154    (WHEN MIN. R.F.=1)  AT K=   2, I=   1, J=  41


 TOTAL NUMBER OF POINT SOURCES/SINKS PRESENT IN THE FLOW MODEL =    62

 MAXIMUM STEPSIZE WHICH MEETS STABILITY CRITERION OF THE SINK & SOURCE TERM
 =  46.16    (WHEN MIN. R.F.=1)  AT K=   2, I=   1, J= 120

 MAXIMUM STEPSIZE WHICH MEETS STABILITY CRITERION OF THE DISPERSION TERM
 =  20.29    (WHEN MIN. R.F.=1)  AT K=   1, I=   1, J=  31
     1 CALLS TO GCG PACKAGE FOR TRANSPORT TIME STEP   4 IN FLOW TIME STEP  23 STRESS PERIOD   1
     6 TOTAL ITERATIONS
  MAXIMUM CONCENTRATION CHANGES FOR EACH ITERATION:
  MAX. CHANGE LAYER,ROW,COL MAX. CHANGE LAYER,ROW,COL MAX. CHANGE LAYER,ROW,COL MAX. CHANGE LAYER,ROW,COL MAX. CHANGE LAYER,ROW,COL
 ------------------------------------------------------------------------------------------------------------------------------------
   0.3975E-01 (  2,  1, 36)  0.1438E-02 (  2,  1, 41)  0.6423E-04 (  3,  1, 35)  0.3049E-05 (  4,  1, 76)  0.1919E-06 (  3,  1, 38)
   0.9784E-08 (  4,  1, 38)


                                          ================================================
                                                         FROM TIME =   230.00     TO    240.00    

 
 SOLVING FOR HEAD 
 FLOW MODEL IS TRANSIENT
 FLOW MODEL CONTAINS CONSTANT-HEAD CELLS


 MAXIMUM STEPSIZE DURING WHICH ANY PARTICLE CANNOT MOVE MORE THAN ONE CELL
 =  3.913    (WHEN MIN. R.F.=1)  AT K=   4, I=   1, J=  35

 MAXIMUM STEPSIZE WHICH MEETS STABILITY CRITERION OF THE ADVECTION TERM
 (FOR PURE FINITE-DIFFERENCE OPTION, MIXELM=0) 
 =  3.062    (WHEN MIN. R.F.=1)  AT K=   2, I=   1, J=  41


 TOTAL NUMBER OF POINT SOURCES/SINKS PRESENT IN THE FLOW MODEL =    62

 MAXIMUM STEPSIZE WHICH MEETS STABILITY CRITERION OF THE SINK & SOURCE TERM
 =  46.31    (WHEN MIN. R.F.=1)  AT K=   2, I=   1, J= 120

 MAXIMUM STEPSIZE WHICH MEETS STABILITY CRITERION OF THE DISPERSION TERM
 =  20.29    (WHEN MIN. R.F.=1)  AT K=   1, I=   1, J=  31


     1 CALLS TO GCG PACKAGE FOR TRANSPORT TIME STEP   1 IN FLOW TIME STEP  24 STRESS PERIOD   1
     6 TOTAL ITERATIONS

 NO OUTPUT CONTROL FOR STRESS PERIOD    1   TIME STEP  24
 
 SOLVING FOR HEAD 
 FLOW MODEL IS TRANSIENT
 FLOW MODEL CONTAINS CONSTANT-HEAD CELLS


 MAXIMUM STEPSIZE DURING WHICH ANY PARTICLE CANNOT MOVE MORE THAN ONE CELL
 =  3.871    (WHEN MIN. R.F.=1)  AT K=   4, I=   1, J=  35

 MAXIMUM STEPSIZE WHICH MEETS STABILITY CRITERION OF THE ADVECTION TERM
 (FOR PURE FINITE-DIFFERENCE OPTION, MIXELM=0) 
 =  3.005    (WHEN MIN. R.F.=1)  AT K=   2, I=   1, J=  41


 TOTAL NUMBER OF POINT SOURCES/SINKS PRESENT IN THE FLOW MODEL =    62

 MAXIMUM STEPSIZE WHICH MEETS STABILITY CRITERION OF THE SINK & SOURCE TERM
 =  45.96    (WHEN MIN. R.F.=1)  AT K=   2, I=   1, J= 120

 MAXIMUM STEPSIZE WHICH MEETS STABILITY CRITERION OF THE DISPERSION TERM
 =  20.29    (WHEN MIN. R.F.=1)  AT K=   1, I=   1, J=  31
     1 CALLS TO GCG PACKAGE FOR TRANSPORT TIME STEP   2 IN FLOW TIME STEP  24 STRESS PERIOD   1
     6 TOTAL ITERATIONS
 
 SOLVING FOR HEAD 
 FLOW MODEL IS TRANSIENT
 FLOW MODEL CONTAINS CONSTANT-HEAD CELLS


 MAXIMUM STEPSIZE DURING WHICH ANY PARTICLE CANNOT MOVE MORE THAN ONE CELL
 =  3.831    (WHEN MIN. R.F.=1)  AT K=   4, I=   1, J=  86

 MAXIMUM STEPSIZE WHICH MEETS STABILITY CRITERION OF THE ADVECTION TERM
 (FOR PURE FINITE-DIFFERENCE OPTION, MIXELM=0) 
 =  2.978    (WHEN MIN. R.F.=1)  AT K=   2, I=   1, J=  41


 TOTAL NUMBER OF POINT SOURCES/SINKS PRESENT IN THE FLOW MODEL =    62

 MAXIMUM STEPSIZE WHICH MEETS STABILITY CRITERION OF THE SINK & SOURCE TERM
 =  46.02    (WHEN MIN. R.F.=1)  AT K=   2, I=   1, J= 120

 MAXIMUM STEPSIZE WHICH MEETS STABILITY CRITERION OF THE DISPERSION TERM
 =  20.29    (WHEN MIN. R.F.=1)  AT K=   1, I=   1, J=  31
     1 CALLS TO GCG PACKAGE FOR TRANSPORT TIME STEP   3 IN FLOW TIME STEP  24 STRESS PERIOD   1
     6 TOTAL ITERATIONS
 
 SOLVING FOR HEAD 
 FLOW MODEL IS TRANSIENT
 FLOW MODEL CONTAINS CONSTANT-HEAD CELLS


 MAXIMUM STEPSIZE DURING WHICH ANY PARTICLE CANNOT MOVE MORE THAN ONE CELL
 =  3.800    (WHEN MIN. R.F.=1)  AT K=   4, I=   1, J=  86

 MAXIMUM STEPSIZE WHICH MEETS STABILITY CRITERION OF THE ADVECTION TERM
 (FOR PURE FINITE-DIFFERENCE OPTION, MIXELM=0) 
 =  2.962    (WHEN MIN. R.F.=1)  AT K=   2, I=   1, J=  86


 TOTAL NUMBER OF POINT SOURCES/SINKS PRESENT IN THE FLOW MODEL =    62

 MAXIMUM STEPSIZE WHICH MEETS STABILITY CRITERION OF THE SINK & SOURCE TERM
 =  46.20    (WHEN MIN. R.F.=1)  AT K=   2, I=   1, J= 120

 MAXIMUM STEPSIZE WHICH MEETS STABILITY CRITERION OF THE DISPERSION TERM
 =  20.29    (WHEN MIN. R.F.=1)  AT K=   1, I=   1, J=  31
     1 CALLS TO GCG PACKAGE FOR TRANSPORT TIME STEP   4 IN FLOW TIME STEP  24 STRESS PERIOD   1
     6 TOTAL ITERATIONS
 
 SOLVING FOR HEAD 
 FLOW MODEL IS TRANSIENT
 FLOW MODEL CONTAINS CONSTANT-HEAD CELLS


 MAXIMUM STEPSIZE DURING WHICH ANY PARTICLE CANNOT MOVE MORE THAN ONE CELL
 =  3.780    (WHEN MIN. R.F.=1)  AT K=   4, I=   1, J=  86

 MAXIMUM STEPSIZE WHICH MEETS STABILITY CRITERION OF THE ADVECTION TERM
 (FOR PURE FINITE-DIFFERENCE OPTION, MIXELM=0) 
 =  2.901    (WHEN MIN. R.F.=1)  AT K=   2, I=   1, J=  86


 TOTAL NUMBER OF POINT SOURCES/SINKS PRESENT IN THE FLOW MODEL =    62

 MAXIMUM STEPSIZE WHICH MEETS STABILITY CRITERION OF THE SINK & SOURCE TERM
 =  45.97    (WHEN MIN. R.F.=1)  AT K=   2, I=   1, J= 120

 MAXIMUM STEPSIZE WHICH MEETS STABILITY CRITERION OF THE DISPERSION TERM
 =  20.29    (WHEN MIN. R.F.=1)  AT K=   1, I=   1, J=  31
     1 CALLS TO GCG PACKAGE FOR TRANSPORT TIME STEP   5 IN FLOW TIME STEP  24 STRESS PERIOD   1
     4 TOTAL ITERATIONS
  MAXIMUM CONCENTRATION CHANGES FOR EACH ITERATION:
  MAX. CHANGE LAYER,ROW,COL MAX. CHANGE LAYER,ROW,COL MAX. CHANGE LAYER,ROW,COL MAX. CHANGE LAYER,ROW,COL MAX. CHANGE LAYER,ROW,COL
 ------------------------------------------------------------------------------------------------------------------------------------
   0.1415E-01 (  2,  1, 50)  0.2394E-03 (  2,  1, 86)  0.3990E-05 (  3,  1, 86)  0.6541E-07 (  3,  1, 85)


                                          ================================================
                                                         FROM TIME =   240.00     TO    250.00    

 
 SOLVING FOR HEAD 
 FLOW MODEL IS TRANSIENT
 FLOW MODEL CONTAINS CONSTANT-HEAD CELLS


 MAXIMUM STEPSIZE DURING WHICH ANY PARTICLE CANNOT MOVE MORE THAN ONE CELL
 =  3.774    (WHEN MIN. R.F.=1)  AT K=   4, I=   1, J=  86

 MAXIMUM STEPSIZE WHICH MEETS STABILITY CRITERION OF THE ADVECTION TERM
 (FOR PURE FINITE-DIFFERENCE OPTION, MIXELM=0) 
 =  2.881    (WHEN MIN. R.F.=1)  AT K=   2, I=   1, J=  86


 TOTAL NUMBER OF POINT SOURCES/SINKS PRESENT IN THE FLOW MODEL =    62

 MAXIMUM STEPSIZE WHICH MEETS STABILITY CRITERION OF THE SINK & SOURCE TERM
 =  49.72    (WHEN MIN. R.F.=1)  AT K=   2, I=   1, J= 120

 MAXIMUM STEPSIZE WHICH MEETS STABILITY CRITERION OF THE DISPERSION TERM
 =  20.29    (WHEN MIN. R.F.=1)  AT K=   1, I=   1, J=  31


     1 CALLS TO GCG PACKAGE FOR TRANSPORT TIME STEP   1 IN FLOW TIME STEP  25 STRESS PERIOD   1
     6 TOTAL ITERATIONS

 NO OUTPUT CONTROL FOR STRESS PERIOD    1   TIME STEP  25
 
 SOLVING FOR HEAD 
 FLOW MODEL IS TRANSIENT
 FLOW MODEL CONTAINS CONSTANT-HEAD CELLS


 MAXIMUM STEPSIZE DURING WHICH ANY PARTICLE CANNOT MOVE MORE THAN ONE CELL
 =  3.774    (WHEN MIN. R.F.=1)  AT K=   4, I=   1, J=  86

 MAXIMUM STEPSIZE WHICH MEETS STABILITY CRITERION OF THE ADVECTION TERM
 (FOR PURE FINITE-DIFFERENCE OPTION, MIXELM=0) 
 =  2.839    (WHEN MIN. R.F.=1)  AT K=   2, I=   1, J=  86


 TOTAL NUMBER OF POINT SOURCES/SINKS PRESENT IN THE FLOW MODEL =    62

 MAXIMUM STEPSIZE WHICH MEETS STABILITY CRITERION OF THE SINK & SOURCE TERM
 =  46.53    (WHEN MIN. R.F.=1)  AT K=   2, I=   1, J= 120

 MAXIMUM STEPSIZE WHICH MEETS STABILITY CRITERION OF THE DISPERSION TERM
 =  20.29    (WHEN MIN. R.F.=1)  AT K=   1, I=   1, J=  31
     1 CALLS TO GCG PACKAGE FOR TRANSPORT TIME STEP   2 IN FLOW TIME STEP  25 STRESS PERIOD   1
     6 TOTAL ITERATIONS
 
 SOLVING FOR HEAD 
 FLOW MODEL IS TRANSIENT
 FLOW MODEL CONTAINS CONSTANT-HEAD CELLS


 MAXIMUM STEPSIZE DURING WHICH ANY PARTICLE CANNOT MOVE MORE THAN ONE CELL
 =  3.786    (WHEN MIN. R.F.=1)  AT K=   4, I=   1, J=  86

 MAXIMUM STEPSIZE WHICH MEETS STABILITY CRITERION OF THE ADVECTION TERM
 (FOR PURE FINITE-DIFFERENCE OPTION, MIXELM=0) 
 =  2.805    (WHEN MIN. R.F.=1)  AT K=   2, I=   1, J=  86


 TOTAL NUMBER OF POINT SOURCES/SINKS PRESENT IN THE FLOW MODEL =    62

 MAXIMUM STEPSIZE WHICH MEETS STABILITY CRITERION OF THE SINK & SOURCE TERM
 =  46.68    (WHEN MIN. R.F.=1)  AT K=   2, I=   1, J= 120

 MAXIMUM STEPSIZE WHICH MEETS STABILITY CRITERION OF THE DISPERSION TERM
 =  20.29    (WHEN MIN. R.F.=1)  AT K=   1, I=   1, J=  31
     1 CALLS TO GCG PACKAGE FOR TRANSPORT TIME STEP   3 IN FLOW TIME STEP  25 STRESS PERIOD   1
     6 TOTAL ITERATIONS
 
 SOLVING FOR HEAD 
 FLOW MODEL IS TRANSIENT
 FLOW MODEL CONTAINS CONSTANT-HEAD CELLS


 MAXIMUM STEPSIZE DURING WHICH ANY PARTICLE CANNOT MOVE MORE THAN ONE CELL
 =  3.811    (WHEN MIN. R.F.=1)  AT K=   4, I=   1, J=  86

 MAXIMUM STEPSIZE WHICH MEETS STABILITY CRITERION OF THE ADVECTION TERM
 (FOR PURE FINITE-DIFFERENCE OPTION, MIXELM=0) 
 =  2.784    (WHEN MIN. R.F.=1)  AT K=   2, I=   1, J=  86


 TOTAL NUMBER OF POINT SOURCES/SINKS PRESENT IN THE FLOW MODEL =    62

 MAXIMUM STEPSIZE WHICH MEETS STABILITY CRITERION OF THE SINK & SOURCE TERM
 =  46.61    (WHEN MIN. R.F.=1)  AT K=   2, I=   1, J= 120

 MAXIMUM STEPSIZE WHICH MEETS STABILITY CRITERION OF THE DISPERSION TERM
 =  20.29    (WHEN MIN. R.F.=1)  AT K=   1, I=   1, J=  31
     1 CALLS TO GCG PACKAGE FOR TRANSPORT TIME STEP   4 IN FLOW TIME STEP  25 STRESS PERIOD   1
     6 TOTAL ITERATIONS
 
 SOLVING FOR HEAD 
 FLOW MODEL IS TRANSIENT
 FLOW MODEL CONTAINS CONSTANT-HEAD CELLS


 MAXIMUM STEPSIZE DURING WHICH ANY PARTICLE CANNOT MOVE MORE THAN ONE CELL
 =  3.852    (WHEN MIN. R.F.=1)  AT K=   4, I=   1, J=  86

 MAXIMUM STEPSIZE WHICH MEETS STABILITY CRITERION OF THE ADVECTION TERM
 (FOR PURE FINITE-DIFFERENCE OPTION, MIXELM=0) 
 =  2.777    (WHEN MIN. R.F.=1)  AT K=   2, I=   1, J=  86


 TOTAL NUMBER OF POINT SOURCES/SINKS PRESENT IN THE FLOW MODEL =    62

 MAXIMUM STEPSIZE WHICH MEETS STABILITY CRITERION OF THE SINK & SOURCE TERM
 =  46.44    (WHEN MIN. R.F.=1)  AT K=   2, I=   1, J= 120

 MAXIMUM STEPSIZE WHICH MEETS STABILITY CRITERION OF THE DISPERSION TERM
 =  20.29    (WHEN MIN. R.F.=1)  AT K=   1, I=   1, J=  31
     1 CALLS TO GCG PACKAGE FOR TRANSPORT TIME STEP   5 IN FLOW TIME STEP  25 STRESS PERIOD   1
     5 TOTAL ITERATIONS
  MAXIMUM CONCENTRATION CHANGES FOR EACH ITERATION:
  MAX. CHANGE LAYER,ROW,COL MAX. CHANGE LAYER,ROW,COL MAX. CHANGE LAYER,ROW,COL MAX. CHANGE LAYER,ROW,COL MAX. CHANGE LAYER,ROW,COL
 ------------------------------------------------------------------------------------------------------------------------------------
   0.2549E-01 (  2,  1, 42)  0.7617E-03 (  2,  1, 86)  0.2286E-04 (  3,  1, 86)  0.5881E-06 (  3,  1, 85)  0.2085E-07 (  4,  1, 85)


                                          ================================================
                                                         FROM TIME =   250.00     TO    260.00    

 
 SOLVING FOR HEAD 
 FLOW MODEL IS TRANSIENT
 FLOW MODEL CONTAINS CONSTANT-HEAD CELLS


 MAXIMUM STEPSIZE DURING WHICH ANY PARTICLE CANNOT MOVE MORE THAN ONE CELL
 =  3.889    (WHEN MIN. R.F.=1)  AT K=   4, I=   1, J=  86

 MAXIMUM STEPSIZE WHICH MEETS STABILITY CRITERION OF THE ADVECTION TERM
 (FOR PURE FINITE-DIFFERENCE OPTION, MIXELM=0) 
 =  2.782    (WHEN MIN. R.F.=1)  AT K=   2, I=   1, J=  86


 TOTAL NUMBER OF POINT SOURCES/SINKS PRESENT IN THE FLOW MODEL =    62

 MAXIMUM STEPSIZE WHICH MEETS STABILITY CRITERION OF THE SINK & SOURCE TERM
 =  47.66    (WHEN MIN. R.F.=1)  AT K=   2, I=   1, J= 120

 MAXIMUM STEPSIZE WHICH MEETS STABILITY CRITERION OF THE DISPERSION TERM
 =  20.29    (WHEN MIN. R.F.=1)  AT K=   1, I=   1, J=  31


     1 CALLS TO GCG PACKAGE FOR TRANSPORT TIME STEP   1 IN FLOW TIME STEP  26 STRESS PERIOD   1
     6 TOTAL ITERATIONS

 NO OUTPUT CONTROL FOR STRESS PERIOD    1   TIME STEP  26
 
 SOLVING FOR HEAD 
 FLOW MODEL IS TRANSIENT
 FLOW MODEL CONTAINS CONSTANT-HEAD CELLS


 MAXIMUM STEPSIZE DURING WHICH ANY PARTICLE CANNOT MOVE MORE THAN ONE CELL
 =  3.970    (WHEN MIN. R.F.=1)  AT K=   4, I=   1, J=  86

 MAXIMUM STEPSIZE WHICH MEETS STABILITY CRITERION OF THE ADVECTION TERM
 (FOR PURE FINITE-DIFFERENCE OPTION, MIXELM=0) 
 =  2.816    (WHEN MIN. R.F.=1)  AT K=   2, I=   1, J=  86


 TOTAL NUMBER OF POINT SOURCES/SINKS PRESENT IN THE FLOW MODEL =    62

 MAXIMUM STEPSIZE WHICH MEETS STABILITY CRITERION OF THE SINK & SOURCE TERM
 =  45.46    (WHEN MIN. R.F.=1)  AT K=   2, I=   1, J= 120

 MAXIMUM STEPSIZE WHICH MEETS STABILITY CRITERION OF THE DISPERSION TERM
 =  20.29    (WHEN MIN. R.F.=1)  AT K=   1, I=   1, J=  31
     1 CALLS TO GCG PACKAGE FOR TRANSPORT TIME STEP   2 IN FLOW TIME STEP  26 STRESS PERIOD   1
     6 TOTAL ITERATIONS
 
 SOLVING FOR HEAD 
 FLOW MODEL IS TRANSIENT
 FLOW MODEL CONTAINS CONSTANT-HEAD CELLS


 MAXIMUM STEPSIZE DURING WHICH ANY PARTICLE CANNOT MOVE MORE THAN ONE CELL
 =  4.081    (WHEN MIN. R.F.=1)  AT K=   4, I=   1, J=  86

 MAXIMUM STEPSIZE WHICH MEETS STABILITY CRITERION OF THE ADVECTION TERM
 (FOR PURE FINITE-DIFFERENCE OPTION, MIXELM=0) 
 =  2.875    (WHEN MIN. R.F.=1)  AT K=   2, I=   1, J=  86


 TOTAL NUMBER OF POINT SOURCES/SINKS PRESENT IN THE FLOW MODEL =    62

 MAXIMUM STEPSIZE WHICH MEETS STABILITY CRITERION OF THE SINK & SOURCE TERM
 =  45.48    (WHEN MIN. R.F.=1)  AT K=   2, I=   1, J= 120

 MAXIMUM STEPSIZE WHICH MEETS STABILITY CRITERION OF THE DISPERSION TERM
 =  20.29    (WHEN MIN. R.F.=1)  AT K=   1, I=   1, J=  31
     1 CALLS TO GCG PACKAGE FOR TRANSPORT TIME STEP   3 IN FLOW TIME STEP  26 STRESS PERIOD   1
     6 TOTAL ITERATIONS
 
 SOLVING FOR HEAD 
 FLOW MODEL IS TRANSIENT
 FLOW MODEL CONTAINS CONSTANT-HEAD CELLS


 MAXIMUM STEPSIZE DURING WHICH ANY PARTICLE CANNOT MOVE MORE THAN ONE CELL
 =  4.227    (WHEN MIN. R.F.=1)  AT K=   4, I=   1, J=  86

 MAXIMUM STEPSIZE WHICH MEETS STABILITY CRITERION OF THE ADVECTION TERM
 (FOR PURE FINITE-DIFFERENCE OPTION, MIXELM=0) 
 =  2.971    (WHEN MIN. R.F.=1)  AT K=   2, I=   1, J=  86


 TOTAL NUMBER OF POINT SOURCES/SINKS PRESENT IN THE FLOW MODEL =    62

 MAXIMUM STEPSIZE WHICH MEETS STABILITY CRITERION OF THE SINK & SOURCE TERM
 =  45.07    (WHEN MIN. R.F.=1)  AT K=   2, I=   1, J= 120

 MAXIMUM STEPSIZE WHICH MEETS STABILITY CRITERION OF THE DISPERSION TERM
 =  20.29    (WHEN MIN. R.F.=1)  AT K=   1, I=   1, J=  31
     1 CALLS TO GCG PACKAGE FOR TRANSPORT TIME STEP   4 IN FLOW TIME STEP  26 STRESS PERIOD   1
     6 TOTAL ITERATIONS
 
 SOLVING FOR HEAD 
 FLOW MODEL IS TRANSIENT
 FLOW MODEL CONTAINS CONSTANT-HEAD CELLS


 MAXIMUM STEPSIZE DURING WHICH ANY PARTICLE CANNOT MOVE MORE THAN ONE CELL
 =  4.375    (WHEN MIN. R.F.=1)  AT K=  14, I=   1, J=  36

 MAXIMUM STEPSIZE WHICH MEETS STABILITY CRITERION OF THE ADVECTION TERM
 (FOR PURE FINITE-DIFFERENCE OPTION, MIXELM=0) 
 =  3.130    (WHEN MIN. R.F.=1)  AT K=   2, I=   1, J=  86


 TOTAL NUMBER OF POINT SOURCES/SINKS PRESENT IN THE FLOW MODEL =    62

 MAXIMUM STEPSIZE WHICH MEETS STABILITY CRITERION OF THE SINK & SOURCE TERM
 =  44.62    (WHEN MIN. R.F.=1)  AT K=   2, I=   1, J= 120

 MAXIMUM STEPSIZE WHICH MEETS STABILITY CRITERION OF THE DISPERSION TERM
 =  20.29    (WHEN MIN. R.F.=1)  AT K=   1, I=   1, J=  31
     1 CALLS TO GCG PACKAGE FOR TRANSPORT TIME STEP   5 IN FLOW TIME STEP  26 STRESS PERIOD   1
     5 TOTAL ITERATIONS
  MAXIMUM CONCENTRATION CHANGES FOR EACH ITERATION:
  MAX. CHANGE LAYER,ROW,COL MAX. CHANGE LAYER,ROW,COL MAX. CHANGE LAYER,ROW,COL MAX. CHANGE LAYER,ROW,COL MAX. CHANGE LAYER,ROW,COL
 ------------------------------------------------------------------------------------------------------------------------------------
   0.2990E-01 (  2,  1, 87)  0.8168E-03 (  2,  1, 48)  0.2433E-04 (  3,  1, 48)  0.9039E-06 (  3,  1, 83)  0.3024E-07 (  4,  1, 54)


                                          ================================================
                                                         FROM TIME =   260.00     TO    270.00    

 
 SOLVING FOR HEAD 
 FLOW MODEL IS TRANSIENT
 FLOW MODEL CONTAINS CONSTANT-HEAD CELLS


 MAXIMUM STEPSIZE DURING WHICH ANY PARTICLE CANNOT MOVE MORE THAN ONE CELL
 =  4.374    (WHEN MIN. R.F.=1)  AT K=  15, I=   1, J=  36

 MAXIMUM STEPSIZE WHICH MEETS STABILITY CRITERION OF THE ADVECTION TERM
 (FOR PURE FINITE-DIFFERENCE OPTION, MIXELM=0) 
 =  3.115    (WHEN MIN. R.F.=1)  AT K=   2, I=   1, J=  53


 TOTAL NUMBER OF POINT SOURCES/SINKS PRESENT IN THE FLOW MODEL =    62

 MAXIMUM STEPSIZE WHICH MEETS STABILITY CRITERION OF THE SINK & SOURCE TERM
 =  45.35    (WHEN MIN. R.F.=1)  AT K=   2, I=   1, J= 120

 MAXIMUM STEPSIZE WHICH MEETS STABILITY CRITERION OF THE DISPERSION TERM
 =  20.29    (WHEN MIN. R.F.=1)  AT K=   1, I=   1, J=  31


     1 CALLS TO GCG PACKAGE FOR TRANSPORT TIME STEP   1 IN FLOW TIME STEP  27 STRESS PERIOD   1
     6 TOTAL ITERATIONS

 NO OUTPUT CONTROL FOR STRESS PERIOD    1   TIME STEP  27
 
 SOLVING FOR HEAD 
 FLOW MODEL IS TRANSIENT
 FLOW MODEL CONTAINS CONSTANT-HEAD CELLS


 MAXIMUM STEPSIZE DURING WHICH ANY PARTICLE CANNOT MOVE MORE THAN ONE CELL
 =  4.367    (WHEN MIN. R.F.=1)  AT K=  15, I=   1, J=  36

 MAXIMUM STEPSIZE WHICH MEETS STABILITY CRITERION OF THE ADVECTION TERM
 (FOR PURE FINITE-DIFFERENCE OPTION, MIXELM=0) 
 =  3.036    (WHEN MIN. R.F.=1)  AT K=   2, I=   1, J=  53


 TOTAL NUMBER OF POINT SOURCES/SINKS PRESENT IN THE FLOW MODEL =    62

 MAXIMUM STEPSIZE WHICH MEETS STABILITY CRITERION OF THE SINK & SOURCE TERM
 =  43.08    (WHEN MIN. R.F.=1)  AT K=   2, I=   1, J= 120

 MAXIMUM STEPSIZE WHICH MEETS STABILITY CRITERION OF THE DISPERSION TERM
 =  20.29    (WHEN MIN. R.F.=1)  AT K=   1, I=   1, J=  31
     1 CALLS TO GCG PACKAGE FOR TRANSPORT TIME STEP   2 IN FLOW TIME STEP  27 STRESS PERIOD   1
     6 TOTAL ITERATIONS
 
 SOLVING FOR HEAD 
 FLOW MODEL IS TRANSIENT
 FLOW MODEL CONTAINS CONSTANT-HEAD CELLS


 MAXIMUM STEPSIZE DURING WHICH ANY PARTICLE CANNOT MOVE MORE THAN ONE CELL
 =  4.377    (WHEN MIN. R.F.=1)  AT K=  15, I=   1, J=  36

 MAXIMUM STEPSIZE WHICH MEETS STABILITY CRITERION OF THE ADVECTION TERM
 (FOR PURE FINITE-DIFFERENCE OPTION, MIXELM=0) 
 =  3.011    (WHEN MIN. R.F.=1)  AT K=   2, I=   1, J=  53


 TOTAL NUMBER OF POINT SOURCES/SINKS PRESENT IN THE FLOW MODEL =    62

 MAXIMUM STEPSIZE WHICH MEETS STABILITY CRITERION OF THE SINK & SOURCE TERM
 =  43.00    (WHEN MIN. R.F.=1)  AT K=   2, I=   1, J= 120

 MAXIMUM STEPSIZE WHICH MEETS STABILITY CRITERION OF THE DISPERSION TERM
 =  20.29    (WHEN MIN. R.F.=1)  AT K=   1, I=   1, J=  31
     1 CALLS TO GCG PACKAGE FOR TRANSPORT TIME STEP   3 IN FLOW TIME STEP  27 STRESS PERIOD   1
     6 TOTAL ITERATIONS
 
 SOLVING FOR HEAD 
 FLOW MODEL IS TRANSIENT
 FLOW MODEL CONTAINS CONSTANT-HEAD CELLS


 MAXIMUM STEPSIZE DURING WHICH ANY PARTICLE CANNOT MOVE MORE THAN ONE CELL
 =  4.376    (WHEN MIN. R.F.=1)  AT K=   4, I=   1, J=  81

 MAXIMUM STEPSIZE WHICH MEETS STABILITY CRITERION OF THE ADVECTION TERM
 (FOR PURE FINITE-DIFFERENCE OPTION, MIXELM=0) 
 =  3.031    (WHEN MIN. R.F.=1)  AT K=   2, I=   1, J=  53


 TOTAL NUMBER OF POINT SOURCES/SINKS PRESENT IN THE FLOW MODEL =    62

 MAXIMUM STEPSIZE WHICH MEETS STABILITY CRITERION OF THE SINK & SOURCE TERM
 =  42.93    (WHEN MIN. R.F.=1)  AT K=   2, I=   1, J= 120

 MAXIMUM STEPSIZE WHICH MEETS STABILITY CRITERION OF THE DISPERSION TERM
 =  20.29    (WHEN MIN. R.F.=1)  AT K=   1, I=   1, J=  31
     1 CALLS TO GCG PACKAGE FOR TRANSPORT TIME STEP   4 IN FLOW TIME STEP  27 STRESS PERIOD   1
     6 TOTAL ITERATIONS
 
 SOLVING FOR HEAD 
 FLOW MODEL IS TRANSIENT
 FLOW MODEL CONTAINS CONSTANT-HEAD CELLS


 MAXIMUM STEPSIZE DURING WHICH ANY PARTICLE CANNOT MOVE MORE THAN ONE CELL
 =  4.295    (WHEN MIN. R.F.=1)  AT K=   4, I=   1, J=  81

 MAXIMUM STEPSIZE WHICH MEETS STABILITY CRITERION OF THE ADVECTION TERM
 (FOR PURE FINITE-DIFFERENCE OPTION, MIXELM=0) 
 =  3.104    (WHEN MIN. R.F.=1)  AT K=   2, I=   1, J=  53


 TOTAL NUMBER OF POINT SOURCES/SINKS PRESENT IN THE FLOW MODEL =    62

 MAXIMUM STEPSIZE WHICH MEETS STABILITY CRITERION OF THE SINK & SOURCE TERM
 =  42.59    (WHEN MIN. R.F.=1)  AT K=   2, I=   1, J= 120

 MAXIMUM STEPSIZE WHICH MEETS STABILITY CRITERION OF THE DISPERSION TERM
 =  20.29    (WHEN MIN. R.F.=1)  AT K=   1, I=   1, J=  31
     1 CALLS TO GCG PACKAGE FOR TRANSPORT TIME STEP   5 IN FLOW TIME STEP  27 STRESS PERIOD   1
     4 TOTAL ITERATIONS
  MAXIMUM CONCENTRATION CHANGES FOR EACH ITERATION:
  MAX. CHANGE LAYER,ROW,COL MAX. CHANGE LAYER,ROW,COL MAX. CHANGE LAYER,ROW,COL MAX. CHANGE LAYER,ROW,COL MAX. CHANGE LAYER,ROW,COL
 ------------------------------------------------------------------------------------------------------------------------------------
   0.1265E-01 (  2,  1, 54)  0.2073E-03 (  2,  1, 85)  0.3714E-05 (  2,  1, 83)  0.7644E-07 (  3,  1, 83)


                                          ================================================
                                                         FROM TIME =   270.00     TO    280.00    

 
 SOLVING FOR HEAD 
 FLOW MODEL IS TRANSIENT
 FLOW MODEL CONTAINS CONSTANT-HEAD CELLS


 MAXIMUM STEPSIZE DURING WHICH ANY PARTICLE CANNOT MOVE MORE THAN ONE CELL
 =  4.279    (WHEN MIN. R.F.=1)  AT K=   4, I=   1, J=  81

 MAXIMUM STEPSIZE WHICH MEETS STABILITY CRITERION OF THE ADVECTION TERM
 (FOR PURE FINITE-DIFFERENCE OPTION, MIXELM=0) 
 =  3.142    (WHEN MIN. R.F.=1)  AT K=   2, I=   1, J=  53


 TOTAL NUMBER OF POINT SOURCES/SINKS PRESENT IN THE FLOW MODEL =    62

 MAXIMUM STEPSIZE WHICH MEETS STABILITY CRITERION OF THE SINK & SOURCE TERM
 =  45.62    (WHEN MIN. R.F.=1)  AT K=   2, I=   1, J= 120

 MAXIMUM STEPSIZE WHICH MEETS STABILITY CRITERION OF THE DISPERSION TERM
 =  20.29    (WHEN MIN. R.F.=1)  AT K=   1, I=   1, J=  31


     1 CALLS TO GCG PACKAGE FOR TRANSPORT TIME STEP   1 IN FLOW TIME STEP  28 STRESS PERIOD   1
     6 TOTAL ITERATIONS

 NO OUTPUT CONTROL FOR STRESS PERIOD    1   TIME STEP  28
 
 SOLVING FOR HEAD 
 FLOW MODEL IS TRANSIENT
 FLOW MODEL CONTAINS CONSTANT-HEAD CELLS


 MAXIMUM STEPSIZE DURING WHICH ANY PARTICLE CANNOT MOVE MORE THAN ONE CELL
 =  4.254    (WHEN MIN. R.F.=1)  AT K=   4, I=   1, J=  81

 MAXIMUM STEPSIZE WHICH MEETS STABILITY CRITERION OF THE ADVECTION TERM
 (FOR PURE FINITE-DIFFERENCE OPTION, MIXELM=0) 
 =  2.992    (WHEN MIN. R.F.=1)  AT K=   2, I=   1, J=  85


 TOTAL NUMBER OF POINT SOURCES/SINKS PRESENT IN THE FLOW MODEL =    62

 MAXIMUM STEPSIZE WHICH MEETS STABILITY CRITERION OF THE SINK & SOURCE TERM
 =  42.50    (WHEN MIN. R.F.=1)  AT K=   2, I=   1, J= 120

 MAXIMUM STEPSIZE WHICH MEETS STABILITY CRITERION OF THE DISPERSION TERM
 =  20.29    (WHEN MIN. R.F.=1)  AT K=   1, I=   1, J=  31
     1 CALLS TO GCG PACKAGE FOR TRANSPORT TIME STEP   2 IN FLOW TIME STEP  28 STRESS PERIOD   1
     6 TOTAL ITERATIONS
 
 SOLVING FOR HEAD 
 FLOW MODEL IS TRANSIENT
 FLOW MODEL CONTAINS CONSTANT-HEAD CELLS


 MAXIMUM STEPSIZE DURING WHICH ANY PARTICLE CANNOT MOVE MORE THAN ONE CELL
 =  4.254    (WHEN MIN. R.F.=1)  AT K=   4, I=   1, J=  81

 MAXIMUM STEPSIZE WHICH MEETS STABILITY CRITERION OF THE ADVECTION TERM
 (FOR PURE FINITE-DIFFERENCE OPTION, MIXELM=0) 
 =  2.875    (WHEN MIN. R.F.=1)  AT K=   2, I=   1, J=  85


 TOTAL NUMBER OF POINT SOURCES/SINKS PRESENT IN THE FLOW MODEL =    62

 MAXIMUM STEPSIZE WHICH MEETS STABILITY CRITERION OF THE SINK & SOURCE TERM
 =  42.61    (WHEN MIN. R.F.=1)  AT K=   2, I=   1, J= 120

 MAXIMUM STEPSIZE WHICH MEETS STABILITY CRITERION OF THE DISPERSION TERM
 =  20.29    (WHEN MIN. R.F.=1)  AT K=   1, I=   1, J=  31
     1 CALLS TO GCG PACKAGE FOR TRANSPORT TIME STEP   3 IN FLOW TIME STEP  28 STRESS PERIOD   1
     6 TOTAL ITERATIONS
 
 SOLVING FOR HEAD 
 FLOW MODEL IS TRANSIENT
 FLOW MODEL CONTAINS CONSTANT-HEAD CELLS


 MAXIMUM STEPSIZE DURING WHICH ANY PARTICLE CANNOT MOVE MORE THAN ONE CELL
 =  4.227    (WHEN MIN. R.F.=1)  AT K=   3, I=   1, J=  85

 MAXIMUM STEPSIZE WHICH MEETS STABILITY CRITERION OF THE ADVECTION TERM
 (FOR PURE FINITE-DIFFERENCE OPTION, MIXELM=0) 
 =  2.830    (WHEN MIN. R.F.=1)  AT K=   2, I=   1, J=  85


 TOTAL NUMBER OF POINT SOURCES/SINKS PRESENT IN THE FLOW MODEL =    62

 MAXIMUM STEPSIZE WHICH MEETS STABILITY CRITERION OF THE SINK & SOURCE TERM
 =  42.27    (WHEN MIN. R.F.=1)  AT K=   2, I=   1, J= 120

 MAXIMUM STEPSIZE WHICH MEETS STABILITY CRITERION OF THE DISPERSION TERM
 =  20.29    (WHEN MIN. R.F.=1)  AT K=   1, I=   1, J=  31
     1 CALLS TO GCG PACKAGE FOR TRANSPORT TIME STEP   4 IN FLOW TIME STEP  28 STRESS PERIOD   1
     4 TOTAL ITERATIONS



 >>>>>>>>>>>>>>>>>>>>>>>>>>>>>>>>>>>>>>>>>>>>>>>>>>>>>>>FOR COMPONENT NO. 01<<<<<<<<<<<<<<<<<<<<<<<<<<<<<<<<<<<<<<<<<<<<<<<<<<<<<<<


                                            -------------------------------------------
                                                      TRANSPORT STEP NO.    4
                                            -------------------------------------------

 TOTAL ELAPSED TIME SINCE BEGINNING OF SIMULATION =   277.2400    D   
 .....................................................................

                     CUMULATIVE MASS BUDGETS AT END OF TRANSPORT STEP    4, TIME STEP   28, STRESS PERIOD    1
                     ------------------------------------------------------------------------------------------

                                                             IN                           OUT
                                                      ----------------             ----------------
                               CONSTANT CONCENTRATION:    180024.5                  -0.1910845E-01
                                        CONSTANT HEAD:    0.000000                  -0.9287418E-49
                               MASS STOR (FLOW MODEL):    36.44097                  -0.7409269    
                                MASS STORAGE (SOLUTE):    101170.8                   -281230.9    
                            ---------------------------------------------------------------------------
                                              [TOTAL]:    281231.7     KG            -281231.6     KG  

                                                          NET (IN - OUT):   0.4117347E-02
                                                   DISCREPANCY (PERCENT):   0.1464041E-05
 
 SOLVING FOR HEAD 
 FLOW MODEL IS TRANSIENT
 FLOW MODEL CONTAINS CONSTANT-HEAD CELLS


 MAXIMUM STEPSIZE DURING WHICH ANY PARTICLE CANNOT MOVE MORE THAN ONE CELL
 =  4.230    (WHEN MIN. R.F.=1)  AT K=   3, I=   1, J=  85

 MAXIMUM STEPSIZE WHICH MEETS STABILITY CRITERION OF THE ADVECTION TERM
 (FOR PURE FINITE-DIFFERENCE OPTION, MIXELM=0) 
 =  2.828    (WHEN MIN. R.F.=1)  AT K=   2, I=   1, J=  85


 TOTAL NUMBER OF POINT SOURCES/SINKS PRESENT IN THE FLOW MODEL =    62

 MAXIMUM STEPSIZE WHICH MEETS STABILITY CRITERION OF THE SINK & SOURCE TERM
 =  46.25    (WHEN MIN. R.F.=1)  AT K=   2, I=   1, J= 120

 MAXIMUM STEPSIZE WHICH MEETS STABILITY CRITERION OF THE DISPERSION TERM
 =  20.29    (WHEN MIN. R.F.=1)  AT K=   1, I=   1, J=  31
     1 CALLS TO GCG PACKAGE FOR TRANSPORT TIME STEP   5 IN FLOW TIME STEP  28 STRESS PERIOD   1
     6 TOTAL ITERATIONS
 
 SOLVING FOR HEAD 
 FLOW MODEL IS TRANSIENT
 FLOW MODEL CONTAINS CONSTANT-HEAD CELLS


 MAXIMUM STEPSIZE DURING WHICH ANY PARTICLE CANNOT MOVE MORE THAN ONE CELL
 =  4.295    (WHEN MIN. R.F.=1)  AT K=   4, I=   1, J=  40

 MAXIMUM STEPSIZE WHICH MEETS STABILITY CRITERION OF THE ADVECTION TERM
 (FOR PURE FINITE-DIFFERENCE OPTION, MIXELM=0) 
 =  2.843    (WHEN MIN. R.F.=1)  AT K=   2, I=   1, J=  85


 TOTAL NUMBER OF POINT SOURCES/SINKS PRESENT IN THE FLOW MODEL =    62

 MAXIMUM STEPSIZE WHICH MEETS STABILITY CRITERION OF THE SINK & SOURCE TERM
 =  44.62    (WHEN MIN. R.F.=1)  AT K=   2, I=   1, J= 120

 MAXIMUM STEPSIZE WHICH MEETS STABILITY CRITERION OF THE DISPERSION TERM
 =  20.29    (WHEN MIN. R.F.=1)  AT K=   1, I=   1, J=  31
     1 CALLS TO GCG PACKAGE FOR TRANSPORT TIME STEP   6 IN FLOW TIME STEP  28 STRESS PERIOD   1
     4 TOTAL ITERATIONS
  MAXIMUM CONCENTRATION CHANGES FOR EACH ITERATION:
  MAX. CHANGE LAYER,ROW,COL MAX. CHANGE LAYER,ROW,COL MAX. CHANGE LAYER,ROW,COL MAX. CHANGE LAYER,ROW,COL MAX. CHANGE LAYER,ROW,COL
 ------------------------------------------------------------------------------------------------------------------------------------
   0.1080E-01 (  2,  1, 54)  0.1368E-03 (  2,  1, 85)  0.1949E-05 (  3,  1, 85)  0.2815E-07 (  3,  1, 50)


                                          ================================================
                                                         FROM TIME =   280.00     TO    290.00    

 
 SOLVING FOR HEAD 
 FLOW MODEL IS TRANSIENT
 FLOW MODEL CONTAINS CONSTANT-HEAD CELLS


 MAXIMUM STEPSIZE DURING WHICH ANY PARTICLE CANNOT MOVE MORE THAN ONE CELL
 =  4.301    (WHEN MIN. R.F.=1)  AT K=   4, I=   1, J=  40

 MAXIMUM STEPSIZE WHICH MEETS STABILITY CRITERION OF THE ADVECTION TERM
 (FOR PURE FINITE-DIFFERENCE OPTION, MIXELM=0) 
 =  2.860    (WHEN MIN. R.F.=1)  AT K=   2, I=   1, J=  85


 TOTAL NUMBER OF POINT SOURCES/SINKS PRESENT IN THE FLOW MODEL =    62

 MAXIMUM STEPSIZE WHICH MEETS STABILITY CRITERION OF THE SINK & SOURCE TERM
 =  46.50    (WHEN MIN. R.F.=1)  AT K=   2, I=   1, J= 120

 MAXIMUM STEPSIZE WHICH MEETS STABILITY CRITERION OF THE DISPERSION TERM
 =  20.29    (WHEN MIN. R.F.=1)  AT K=   1, I=   1, J=  31


     1 CALLS TO GCG PACKAGE FOR TRANSPORT TIME STEP   1 IN FLOW TIME STEP  29 STRESS PERIOD   1
     6 TOTAL ITERATIONS

 NO OUTPUT CONTROL FOR STRESS PERIOD    1   TIME STEP  29
 
 SOLVING FOR HEAD 
 FLOW MODEL IS TRANSIENT
 FLOW MODEL CONTAINS CONSTANT-HEAD CELLS


 MAXIMUM STEPSIZE DURING WHICH ANY PARTICLE CANNOT MOVE MORE THAN ONE CELL
 =  4.336    (WHEN MIN. R.F.=1)  AT K=   4, I=   1, J=  40

 MAXIMUM STEPSIZE WHICH MEETS STABILITY CRITERION OF THE ADVECTION TERM
 (FOR PURE FINITE-DIFFERENCE OPTION, MIXELM=0) 
 =  2.935    (WHEN MIN. R.F.=1)  AT K=   2, I=   1, J=  85


 TOTAL NUMBER OF POINT SOURCES/SINKS PRESENT IN THE FLOW MODEL =    62

 MAXIMUM STEPSIZE WHICH MEETS STABILITY CRITERION OF THE SINK & SOURCE TERM
 =  43.06    (WHEN MIN. R.F.=1)  AT K=   2, I=   1, J= 120

 MAXIMUM STEPSIZE WHICH MEETS STABILITY CRITERION OF THE DISPERSION TERM
 =  20.29    (WHEN MIN. R.F.=1)  AT K=   1, I=   1, J=  31
     1 CALLS TO GCG PACKAGE FOR TRANSPORT TIME STEP   2 IN FLOW TIME STEP  29 STRESS PERIOD   1
     6 TOTAL ITERATIONS
 
 SOLVING FOR HEAD 
 FLOW MODEL IS TRANSIENT
 FLOW MODEL CONTAINS CONSTANT-HEAD CELLS


 MAXIMUM STEPSIZE DURING WHICH ANY PARTICLE CANNOT MOVE MORE THAN ONE CELL
 =  4.379    (WHEN MIN. R.F.=1)  AT K=   4, I=   1, J=  40

 MAXIMUM STEPSIZE WHICH MEETS STABILITY CRITERION OF THE ADVECTION TERM
 (FOR PURE FINITE-DIFFERENCE OPTION, MIXELM=0) 
 =  3.062    (WHEN MIN. R.F.=1)  AT K=   2, I=   1, J=  85


 TOTAL NUMBER OF POINT SOURCES/SINKS PRESENT IN THE FLOW MODEL =    62

 MAXIMUM STEPSIZE WHICH MEETS STABILITY CRITERION OF THE SINK & SOURCE TERM
 =  42.80    (WHEN MIN. R.F.=1)  AT K=   2, I=   1, J= 120

 MAXIMUM STEPSIZE WHICH MEETS STABILITY CRITERION OF THE DISPERSION TERM
 =  20.29    (WHEN MIN. R.F.=1)  AT K=   1, I=   1, J=  31
     1 CALLS TO GCG PACKAGE FOR TRANSPORT TIME STEP   3 IN FLOW TIME STEP  29 STRESS PERIOD   1
     6 TOTAL ITERATIONS
 
 SOLVING FOR HEAD 
 FLOW MODEL IS TRANSIENT
 FLOW MODEL CONTAINS CONSTANT-HEAD CELLS


 MAXIMUM STEPSIZE DURING WHICH ANY PARTICLE CANNOT MOVE MORE THAN ONE CELL
 =  4.433    (WHEN MIN. R.F.=1)  AT K=   4, I=   1, J=  40

 MAXIMUM STEPSIZE WHICH MEETS STABILITY CRITERION OF THE ADVECTION TERM
 (FOR PURE FINITE-DIFFERENCE OPTION, MIXELM=0) 
 =  3.261    (WHEN MIN. R.F.=1)  AT K=   2, I=   1, J=  85


 TOTAL NUMBER OF POINT SOURCES/SINKS PRESENT IN THE FLOW MODEL =    62

 MAXIMUM STEPSIZE WHICH MEETS STABILITY CRITERION OF THE SINK & SOURCE TERM
 =  42.84    (WHEN MIN. R.F.=1)  AT K=   2, I=   1, J= 120

 MAXIMUM STEPSIZE WHICH MEETS STABILITY CRITERION OF THE DISPERSION TERM
 =  20.29    (WHEN MIN. R.F.=1)  AT K=   1, I=   1, J=  31
     1 CALLS TO GCG PACKAGE FOR TRANSPORT TIME STEP   4 IN FLOW TIME STEP  29 STRESS PERIOD   1
     6 TOTAL ITERATIONS
 
 SOLVING FOR HEAD 
 FLOW MODEL IS TRANSIENT
 FLOW MODEL CONTAINS CONSTANT-HEAD CELLS


 MAXIMUM STEPSIZE DURING WHICH ANY PARTICLE CANNOT MOVE MORE THAN ONE CELL
 =  4.501    (WHEN MIN. R.F.=1)  AT K=   4, I=   1, J=  40

 MAXIMUM STEPSIZE WHICH MEETS STABILITY CRITERION OF THE ADVECTION TERM
 (FOR PURE FINITE-DIFFERENCE OPTION, MIXELM=0) 
 =  3.212    (WHEN MIN. R.F.=1)  AT K=   2, I=   1, J=  52


 TOTAL NUMBER OF POINT SOURCES/SINKS PRESENT IN THE FLOW MODEL =    62

 MAXIMUM STEPSIZE WHICH MEETS STABILITY CRITERION OF THE SINK & SOURCE TERM
 =  42.95    (WHEN MIN. R.F.=1)  AT K=   2, I=   1, J= 120

 MAXIMUM STEPSIZE WHICH MEETS STABILITY CRITERION OF THE DISPERSION TERM
 =  20.29    (WHEN MIN. R.F.=1)  AT K=   1, I=   1, J=  31
     1 CALLS TO GCG PACKAGE FOR TRANSPORT TIME STEP   5 IN FLOW TIME STEP  29 STRESS PERIOD   1
     5 TOTAL ITERATIONS
  MAXIMUM CONCENTRATION CHANGES FOR EACH ITERATION:
  MAX. CHANGE LAYER,ROW,COL MAX. CHANGE LAYER,ROW,COL MAX. CHANGE LAYER,ROW,COL MAX. CHANGE LAYER,ROW,COL MAX. CHANGE LAYER,ROW,COL
 ------------------------------------------------------------------------------------------------------------------------------------
   0.2065E-01 (  2,  1, 86)  0.5003E-03 (  2,  1, 52)  0.1316E-04 (  3,  1, 52)  0.3419E-06 (  3,  1, 71)  0.8565E-08 (  4,  1, 41)


                                          ================================================
                                                         FROM TIME =   290.00     TO    300.00    

 
 SOLVING FOR HEAD 
 FLOW MODEL IS TRANSIENT
 FLOW MODEL CONTAINS CONSTANT-HEAD CELLS


 MAXIMUM STEPSIZE DURING WHICH ANY PARTICLE CANNOT MOVE MORE THAN ONE CELL
 =  4.545    (WHEN MIN. R.F.=1)  AT K=   4, I=   1, J=  40

 MAXIMUM STEPSIZE WHICH MEETS STABILITY CRITERION OF THE ADVECTION TERM
 (FOR PURE FINITE-DIFFERENCE OPTION, MIXELM=0) 
 =  3.186    (WHEN MIN. R.F.=1)  AT K=   2, I=   1, J=  52


 TOTAL NUMBER OF POINT SOURCES/SINKS PRESENT IN THE FLOW MODEL =    62

 MAXIMUM STEPSIZE WHICH MEETS STABILITY CRITERION OF THE SINK & SOURCE TERM
 =  45.97    (WHEN MIN. R.F.=1)  AT K=   2, I=   1, J= 120

 MAXIMUM STEPSIZE WHICH MEETS STABILITY CRITERION OF THE DISPERSION TERM
 =  20.29    (WHEN MIN. R.F.=1)  AT K=   1, I=   1, J=  31


     1 CALLS TO GCG PACKAGE FOR TRANSPORT TIME STEP   1 IN FLOW TIME STEP  30 STRESS PERIOD   1
     6 TOTAL ITERATIONS

 NO OUTPUT CONTROL FOR STRESS PERIOD    1   TIME STEP  30
 
 SOLVING FOR HEAD 
 FLOW MODEL IS TRANSIENT
 FLOW MODEL CONTAINS CONSTANT-HEAD CELLS


 MAXIMUM STEPSIZE DURING WHICH ANY PARTICLE CANNOT MOVE MORE THAN ONE CELL
 =  4.640    (WHEN MIN. R.F.=1)  AT K=   3, I=   1, J=  52

 MAXIMUM STEPSIZE WHICH MEETS STABILITY CRITERION OF THE ADVECTION TERM
 (FOR PURE FINITE-DIFFERENCE OPTION, MIXELM=0) 
 =  3.183    (WHEN MIN. R.F.=1)  AT K=   2, I=   1, J=  52


 TOTAL NUMBER OF POINT SOURCES/SINKS PRESENT IN THE FLOW MODEL =    62

 MAXIMUM STEPSIZE WHICH MEETS STABILITY CRITERION OF THE SINK & SOURCE TERM
 =  43.55    (WHEN MIN. R.F.=1)  AT K=   2, I=   1, J= 120

 MAXIMUM STEPSIZE WHICH MEETS STABILITY CRITERION OF THE DISPERSION TERM
 =  20.29    (WHEN MIN. R.F.=1)  AT K=   1, I=   1, J=  31
     1 CALLS TO GCG PACKAGE FOR TRANSPORT TIME STEP   2 IN FLOW TIME STEP  30 STRESS PERIOD   1
     6 TOTAL ITERATIONS
 
 SOLVING FOR HEAD 
 FLOW MODEL IS TRANSIENT
 FLOW MODEL CONTAINS CONSTANT-HEAD CELLS


 MAXIMUM STEPSIZE DURING WHICH ANY PARTICLE CANNOT MOVE MORE THAN ONE CELL
 =  4.735    (WHEN MIN. R.F.=1)  AT K=  16, I=   1, J=  35

 MAXIMUM STEPSIZE WHICH MEETS STABILITY CRITERION OF THE ADVECTION TERM
 (FOR PURE FINITE-DIFFERENCE OPTION, MIXELM=0) 
 =  3.213    (WHEN MIN. R.F.=1)  AT K=   2, I=   1, J=  52


 TOTAL NUMBER OF POINT SOURCES/SINKS PRESENT IN THE FLOW MODEL =    62

 MAXIMUM STEPSIZE WHICH MEETS STABILITY CRITERION OF THE SINK & SOURCE TERM
 =  44.61    (WHEN MIN. R.F.=1)  AT K=   2, I=   1, J= 120

 MAXIMUM STEPSIZE WHICH MEETS STABILITY CRITERION OF THE DISPERSION TERM
 =  20.29    (WHEN MIN. R.F.=1)  AT K=   1, I=   1, J=  31
     1 CALLS TO GCG PACKAGE FOR TRANSPORT TIME STEP   3 IN FLOW TIME STEP  30 STRESS PERIOD   1
     6 TOTAL ITERATIONS
 
 SOLVING FOR HEAD 
 FLOW MODEL IS TRANSIENT
 FLOW MODEL CONTAINS CONSTANT-HEAD CELLS


 MAXIMUM STEPSIZE DURING WHICH ANY PARTICLE CANNOT MOVE MORE THAN ONE CELL
 =  4.759    (WHEN MIN. R.F.=1)  AT K=  17, I=   1, J=  35

 MAXIMUM STEPSIZE WHICH MEETS STABILITY CRITERION OF THE ADVECTION TERM
 (FOR PURE FINITE-DIFFERENCE OPTION, MIXELM=0) 
 =  3.173    (WHEN MIN. R.F.=1)  AT K=   2, I=   1, J=  84


 TOTAL NUMBER OF POINT SOURCES/SINKS PRESENT IN THE FLOW MODEL =    62

 MAXIMUM STEPSIZE WHICH MEETS STABILITY CRITERION OF THE SINK & SOURCE TERM
 =  45.24    (WHEN MIN. R.F.=1)  AT K=   2, I=   1, J= 120

 MAXIMUM STEPSIZE WHICH MEETS STABILITY CRITERION OF THE DISPERSION TERM
 =  20.29    (WHEN MIN. R.F.=1)  AT K=   1, I=   1, J=  31
     1 CALLS TO GCG PACKAGE FOR TRANSPORT TIME STEP   4 IN FLOW TIME STEP  30 STRESS PERIOD   1
     6 TOTAL ITERATIONS
 
 SOLVING FOR HEAD 
 FLOW MODEL IS TRANSIENT
 FLOW MODEL CONTAINS CONSTANT-HEAD CELLS


 MAXIMUM STEPSIZE DURING WHICH ANY PARTICLE CANNOT MOVE MORE THAN ONE CELL
 =  4.761    (WHEN MIN. R.F.=1)  AT K=   3, I=   1, J=  84

 MAXIMUM STEPSIZE WHICH MEETS STABILITY CRITERION OF THE ADVECTION TERM
 (FOR PURE FINITE-DIFFERENCE OPTION, MIXELM=0) 
 =  3.066    (WHEN MIN. R.F.=1)  AT K=   2, I=   1, J=  84


 TOTAL NUMBER OF POINT SOURCES/SINKS PRESENT IN THE FLOW MODEL =    62

 MAXIMUM STEPSIZE WHICH MEETS STABILITY CRITERION OF THE SINK & SOURCE TERM
 =  45.09    (WHEN MIN. R.F.=1)  AT K=   2, I=   1, J= 120

 MAXIMUM STEPSIZE WHICH MEETS STABILITY CRITERION OF THE DISPERSION TERM
 =  20.29    (WHEN MIN. R.F.=1)  AT K=   1, I=   1, J=  31
     1 CALLS TO GCG PACKAGE FOR TRANSPORT TIME STEP   5 IN FLOW TIME STEP  30 STRESS PERIOD   1
     4 TOTAL ITERATIONS
  MAXIMUM CONCENTRATION CHANGES FOR EACH ITERATION:
  MAX. CHANGE LAYER,ROW,COL MAX. CHANGE LAYER,ROW,COL MAX. CHANGE LAYER,ROW,COL MAX. CHANGE LAYER,ROW,COL MAX. CHANGE LAYER,ROW,COL
 ------------------------------------------------------------------------------------------------------------------------------------
   0.6839E-02 (  2,  1, 53)  0.5636E-04 (  2,  1, 84)  0.5123E-06 (  3,  1, 84)  0.3879E-08 (  3,  1, 85)


                                          ================================================
                                                         FROM TIME =   300.00     TO    310.00    

 
 SOLVING FOR HEAD 
 FLOW MODEL IS TRANSIENT
 FLOW MODEL CONTAINS CONSTANT-HEAD CELLS


 MAXIMUM STEPSIZE DURING WHICH ANY PARTICLE CANNOT MOVE MORE THAN ONE CELL
 =  4.751    (WHEN MIN. R.F.=1)  AT K=   3, I=   1, J=  84

 MAXIMUM STEPSIZE WHICH MEETS STABILITY CRITERION OF THE ADVECTION TERM
 (FOR PURE FINITE-DIFFERENCE OPTION, MIXELM=0) 
 =  3.058    (WHEN MIN. R.F.=1)  AT K=   2, I=   1, J=  84


 TOTAL NUMBER OF POINT SOURCES/SINKS PRESENT IN THE FLOW MODEL =    62

 MAXIMUM STEPSIZE WHICH MEETS STABILITY CRITERION OF THE SINK & SOURCE TERM
 =  49.62    (WHEN MIN. R.F.=1)  AT K=   2, I=   1, J= 120

 MAXIMUM STEPSIZE WHICH MEETS STABILITY CRITERION OF THE DISPERSION TERM
 =  20.29    (WHEN MIN. R.F.=1)  AT K=   1, I=   1, J=  31


     1 CALLS TO GCG PACKAGE FOR TRANSPORT TIME STEP   1 IN FLOW TIME STEP  31 STRESS PERIOD   1
     6 TOTAL ITERATIONS

 NO OUTPUT CONTROL FOR STRESS PERIOD    1   TIME STEP  31
 
 SOLVING FOR HEAD 
 FLOW MODEL IS TRANSIENT
 FLOW MODEL CONTAINS CONSTANT-HEAD CELLS


 MAXIMUM STEPSIZE DURING WHICH ANY PARTICLE CANNOT MOVE MORE THAN ONE CELL
 =  4.771    (WHEN MIN. R.F.=1)  AT K=   3, I=   1, J=  84

 MAXIMUM STEPSIZE WHICH MEETS STABILITY CRITERION OF THE ADVECTION TERM
 (FOR PURE FINITE-DIFFERENCE OPTION, MIXELM=0) 
 =  3.049    (WHEN MIN. R.F.=1)  AT K=   2, I=   1, J=  84


 TOTAL NUMBER OF POINT SOURCES/SINKS PRESENT IN THE FLOW MODEL =    62

 MAXIMUM STEPSIZE WHICH MEETS STABILITY CRITERION OF THE SINK & SOURCE TERM
 =  47.04    (WHEN MIN. R.F.=1)  AT K=   2, I=   1, J= 120

 MAXIMUM STEPSIZE WHICH MEETS STABILITY CRITERION OF THE DISPERSION TERM
 =  20.29    (WHEN MIN. R.F.=1)  AT K=   1, I=   1, J=  31
     1 CALLS TO GCG PACKAGE FOR TRANSPORT TIME STEP   2 IN FLOW TIME STEP  31 STRESS PERIOD   1
     6 TOTAL ITERATIONS
 
 SOLVING FOR HEAD 
 FLOW MODEL IS TRANSIENT
 FLOW MODEL CONTAINS CONSTANT-HEAD CELLS


 MAXIMUM STEPSIZE DURING WHICH ANY PARTICLE CANNOT MOVE MORE THAN ONE CELL
 =  4.852    (WHEN MIN. R.F.=1)  AT K=  17, I=   1, J=  35

 MAXIMUM STEPSIZE WHICH MEETS STABILITY CRITERION OF THE ADVECTION TERM
 (FOR PURE FINITE-DIFFERENCE OPTION, MIXELM=0) 
 =  3.105    (WHEN MIN. R.F.=1)  AT K=   2, I=   1, J=  84


 TOTAL NUMBER OF POINT SOURCES/SINKS PRESENT IN THE FLOW MODEL =    62

 MAXIMUM STEPSIZE WHICH MEETS STABILITY CRITERION OF THE SINK & SOURCE TERM
 =  46.49    (WHEN MIN. R.F.=1)  AT K=   2, I=   1, J= 120

 MAXIMUM STEPSIZE WHICH MEETS STABILITY CRITERION OF THE DISPERSION TERM
 =  20.29    (WHEN MIN. R.F.=1)  AT K=   1, I=   1, J=  31
     1 CALLS TO GCG PACKAGE FOR TRANSPORT TIME STEP   3 IN FLOW TIME STEP  31 STRESS PERIOD   1
     6 TOTAL ITERATIONS
 
 SOLVING FOR HEAD 
 FLOW MODEL IS TRANSIENT
 FLOW MODEL CONTAINS CONSTANT-HEAD CELLS


 MAXIMUM STEPSIZE DURING WHICH ANY PARTICLE CANNOT MOVE MORE THAN ONE CELL
 =  4.882    (WHEN MIN. R.F.=1)  AT K=  18, I=   1, J=  35

 MAXIMUM STEPSIZE WHICH MEETS STABILITY CRITERION OF THE ADVECTION TERM
 (FOR PURE FINITE-DIFFERENCE OPTION, MIXELM=0) 
 =  3.226    (WHEN MIN. R.F.=1)  AT K=   2, I=   1, J=  84


 TOTAL NUMBER OF POINT SOURCES/SINKS PRESENT IN THE FLOW MODEL =    62

 MAXIMUM STEPSIZE WHICH MEETS STABILITY CRITERION OF THE SINK & SOURCE TERM
 =  46.16    (WHEN MIN. R.F.=1)  AT K=   2, I=   1, J= 120

 MAXIMUM STEPSIZE WHICH MEETS STABILITY CRITERION OF THE DISPERSION TERM
 =  20.29    (WHEN MIN. R.F.=1)  AT K=   1, I=   1, J=  31
     1 CALLS TO GCG PACKAGE FOR TRANSPORT TIME STEP   4 IN FLOW TIME STEP  31 STRESS PERIOD   1
     6 TOTAL ITERATIONS
 
 SOLVING FOR HEAD 
 FLOW MODEL IS TRANSIENT
 FLOW MODEL CONTAINS CONSTANT-HEAD CELLS


 MAXIMUM STEPSIZE DURING WHICH ANY PARTICLE CANNOT MOVE MORE THAN ONE CELL
 =  4.927    (WHEN MIN. R.F.=1)  AT K=  18, I=   1, J=  35

 MAXIMUM STEPSIZE WHICH MEETS STABILITY CRITERION OF THE ADVECTION TERM
 (FOR PURE FINITE-DIFFERENCE OPTION, MIXELM=0) 
 =  3.475    (WHEN MIN. R.F.=1)  AT K=   2, I=   1, J=  84


 TOTAL NUMBER OF POINT SOURCES/SINKS PRESENT IN THE FLOW MODEL =    62

 MAXIMUM STEPSIZE WHICH MEETS STABILITY CRITERION OF THE SINK & SOURCE TERM
 =  45.73    (WHEN MIN. R.F.=1)  AT K=   2, I=   1, J= 120

 MAXIMUM STEPSIZE WHICH MEETS STABILITY CRITERION OF THE DISPERSION TERM
 =  20.29    (WHEN MIN. R.F.=1)  AT K=   1, I=   1, J=  31
     1 CALLS TO GCG PACKAGE FOR TRANSPORT TIME STEP   5 IN FLOW TIME STEP  31 STRESS PERIOD   1
     4 TOTAL ITERATIONS
  MAXIMUM CONCENTRATION CHANGES FOR EACH ITERATION:
  MAX. CHANGE LAYER,ROW,COL MAX. CHANGE LAYER,ROW,COL MAX. CHANGE LAYER,ROW,COL MAX. CHANGE LAYER,ROW,COL MAX. CHANGE LAYER,ROW,COL
 ------------------------------------------------------------------------------------------------------------------------------------
   0.1382E-01 (  2,  1, 85)  0.1706E-03 (  2,  1, 51)  0.2832E-05 (  3,  1, 51)  0.4423E-07 (  3,  1, 75)


                                          ================================================
                                                         FROM TIME =   310.00     TO    320.00    

 
 SOLVING FOR HEAD 
 FLOW MODEL IS TRANSIENT
 FLOW MODEL CONTAINS CONSTANT-HEAD CELLS


 MAXIMUM STEPSIZE DURING WHICH ANY PARTICLE CANNOT MOVE MORE THAN ONE CELL
 =  4.948    (WHEN MIN. R.F.=1)  AT K=  18, I=   1, J=  35

 MAXIMUM STEPSIZE WHICH MEETS STABILITY CRITERION OF THE ADVECTION TERM
 (FOR PURE FINITE-DIFFERENCE OPTION, MIXELM=0) 
 =  3.570    (WHEN MIN. R.F.=1)  AT K=   2, I=   1, J=  84


 TOTAL NUMBER OF POINT SOURCES/SINKS PRESENT IN THE FLOW MODEL =    62

 MAXIMUM STEPSIZE WHICH MEETS STABILITY CRITERION OF THE SINK & SOURCE TERM
 =  48.88    (WHEN MIN. R.F.=1)  AT K=   2, I=   1, J= 120

 MAXIMUM STEPSIZE WHICH MEETS STABILITY CRITERION OF THE DISPERSION TERM
 =  20.29    (WHEN MIN. R.F.=1)  AT K=   1, I=   1, J=  31


     1 CALLS TO GCG PACKAGE FOR TRANSPORT TIME STEP   1 IN FLOW TIME STEP  32 STRESS PERIOD   1
     6 TOTAL ITERATIONS

 NO OUTPUT CONTROL FOR STRESS PERIOD    1   TIME STEP  32
 
 SOLVING FOR HEAD 
 FLOW MODEL IS TRANSIENT
 FLOW MODEL CONTAINS CONSTANT-HEAD CELLS


 MAXIMUM STEPSIZE DURING WHICH ANY PARTICLE CANNOT MOVE MORE THAN ONE CELL
 =  5.024    (WHEN MIN. R.F.=1)  AT K=  18, I=   1, J=  86

 MAXIMUM STEPSIZE WHICH MEETS STABILITY CRITERION OF THE ADVECTION TERM
 (FOR PURE FINITE-DIFFERENCE OPTION, MIXELM=0) 
 =  3.657    (WHEN MIN. R.F.=1)  AT K=   7, I=   1, J=  57


 TOTAL NUMBER OF POINT SOURCES/SINKS PRESENT IN THE FLOW MODEL =    62

 MAXIMUM STEPSIZE WHICH MEETS STABILITY CRITERION OF THE SINK & SOURCE TERM
 =  45.39    (WHEN MIN. R.F.=1)  AT K=   2, I=   1, J= 120

 MAXIMUM STEPSIZE WHICH MEETS STABILITY CRITERION OF THE DISPERSION TERM
 =  20.29    (WHEN MIN. R.F.=1)  AT K=   1, I=   1, J=  31
     1 CALLS TO GCG PACKAGE FOR TRANSPORT TIME STEP   2 IN FLOW TIME STEP  32 STRESS PERIOD   1
     6 TOTAL ITERATIONS
 
 SOLVING FOR HEAD 
 FLOW MODEL IS TRANSIENT
 FLOW MODEL CONTAINS CONSTANT-HEAD CELLS


 MAXIMUM STEPSIZE DURING WHICH ANY PARTICLE CANNOT MOVE MORE THAN ONE CELL
 =  5.023    (WHEN MIN. R.F.=1)  AT K=   3, I=   1, J=  60

 MAXIMUM STEPSIZE WHICH MEETS STABILITY CRITERION OF THE ADVECTION TERM
 (FOR PURE FINITE-DIFFERENCE OPTION, MIXELM=0) 
 =  3.606    (WHEN MIN. R.F.=1)  AT K=   7, I=   1, J=  57


 TOTAL NUMBER OF POINT SOURCES/SINKS PRESENT IN THE FLOW MODEL =    62

 MAXIMUM STEPSIZE WHICH MEETS STABILITY CRITERION OF THE SINK & SOURCE TERM
 =  45.50    (WHEN MIN. R.F.=1)  AT K=   2, I=   1, J= 120

 MAXIMUM STEPSIZE WHICH MEETS STABILITY CRITERION OF THE DISPERSION TERM
 =  20.29    (WHEN MIN. R.F.=1)  AT K=   1, I=   1, J=  31
     1 CALLS TO GCG PACKAGE FOR TRANSPORT TIME STEP   3 IN FLOW TIME STEP  32 STRESS PERIOD   1
     6 TOTAL ITERATIONS
 
 SOLVING FOR HEAD 
 FLOW MODEL IS TRANSIENT
 FLOW MODEL CONTAINS CONSTANT-HEAD CELLS


 MAXIMUM STEPSIZE DURING WHICH ANY PARTICLE CANNOT MOVE MORE THAN ONE CELL
 =  4.983    (WHEN MIN. R.F.=1)  AT K=   3, I=   1, J=  60

 MAXIMUM STEPSIZE WHICH MEETS STABILITY CRITERION OF THE ADVECTION TERM
 (FOR PURE FINITE-DIFFERENCE OPTION, MIXELM=0) 
 =  3.458    (WHEN MIN. R.F.=1)  AT K=   2, I=   1, J=  83


 TOTAL NUMBER OF POINT SOURCES/SINKS PRESENT IN THE FLOW MODEL =    62

 MAXIMUM STEPSIZE WHICH MEETS STABILITY CRITERION OF THE SINK & SOURCE TERM
 =  45.82    (WHEN MIN. R.F.=1)  AT K=   2, I=   1, J= 120

 MAXIMUM STEPSIZE WHICH MEETS STABILITY CRITERION OF THE DISPERSION TERM
 =  20.29    (WHEN MIN. R.F.=1)  AT K=   1, I=   1, J=  31
     1 CALLS TO GCG PACKAGE FOR TRANSPORT TIME STEP   4 IN FLOW TIME STEP  32 STRESS PERIOD   1
     5 TOTAL ITERATIONS
  MAXIMUM CONCENTRATION CHANGES FOR EACH ITERATION:
  MAX. CHANGE LAYER,ROW,COL MAX. CHANGE LAYER,ROW,COL MAX. CHANGE LAYER,ROW,COL MAX. CHANGE LAYER,ROW,COL MAX. CHANGE LAYER,ROW,COL
 ------------------------------------------------------------------------------------------------------------------------------------
   0.3039E-01 (  2,  1, 41)  0.1225E-02 (  2,  1, 51)  0.5405E-04 (  3,  1, 51)  0.1667E-05 (  3,  1, 82)  0.7432E-07 (  4,  1, 52)


                                          ================================================
                                                         FROM TIME =   320.00     TO    330.00    

 
 SOLVING FOR HEAD 
 FLOW MODEL IS TRANSIENT
 FLOW MODEL CONTAINS CONSTANT-HEAD CELLS


 MAXIMUM STEPSIZE DURING WHICH ANY PARTICLE CANNOT MOVE MORE THAN ONE CELL
 =  4.957    (WHEN MIN. R.F.=1)  AT K=   3, I=   1, J=  60

 MAXIMUM STEPSIZE WHICH MEETS STABILITY CRITERION OF THE ADVECTION TERM
 (FOR PURE FINITE-DIFFERENCE OPTION, MIXELM=0) 
 =  3.322    (WHEN MIN. R.F.=1)  AT K=   2, I=   1, J=  83


 TOTAL NUMBER OF POINT SOURCES/SINKS PRESENT IN THE FLOW MODEL =    62

 MAXIMUM STEPSIZE WHICH MEETS STABILITY CRITERION OF THE SINK & SOURCE TERM
 =  47.85    (WHEN MIN. R.F.=1)  AT K=   2, I=   1, J= 120

 MAXIMUM STEPSIZE WHICH MEETS STABILITY CRITERION OF THE DISPERSION TERM
 =  20.29    (WHEN MIN. R.F.=1)  AT K=   1, I=   1, J=  31


     1 CALLS TO GCG PACKAGE FOR TRANSPORT TIME STEP   1 IN FLOW TIME STEP  33 STRESS PERIOD   1
     6 TOTAL ITERATIONS

 NO OUTPUT CONTROL FOR STRESS PERIOD    1   TIME STEP  33
 
 SOLVING FOR HEAD 
 FLOW MODEL IS TRANSIENT
 FLOW MODEL CONTAINS CONSTANT-HEAD CELLS


 MAXIMUM STEPSIZE DURING WHICH ANY PARTICLE CANNOT MOVE MORE THAN ONE CELL
 =  4.936    (WHEN MIN. R.F.=1)  AT K=   3, I=   1, J=  60

 MAXIMUM STEPSIZE WHICH MEETS STABILITY CRITERION OF THE ADVECTION TERM
 (FOR PURE FINITE-DIFFERENCE OPTION, MIXELM=0) 
 =  3.250    (WHEN MIN. R.F.=1)  AT K=   2, I=   1, J=  83


 TOTAL NUMBER OF POINT SOURCES/SINKS PRESENT IN THE FLOW MODEL =    62

 MAXIMUM STEPSIZE WHICH MEETS STABILITY CRITERION OF THE SINK & SOURCE TERM
 =  47.05    (WHEN MIN. R.F.=1)  AT K=   2, I=   1, J= 120

 MAXIMUM STEPSIZE WHICH MEETS STABILITY CRITERION OF THE DISPERSION TERM
 =  20.29    (WHEN MIN. R.F.=1)  AT K=   1, I=   1, J=  31
     1 CALLS TO GCG PACKAGE FOR TRANSPORT TIME STEP   2 IN FLOW TIME STEP  33 STRESS PERIOD   1
     6 TOTAL ITERATIONS
 
 SOLVING FOR HEAD 
 FLOW MODEL IS TRANSIENT
 FLOW MODEL CONTAINS CONSTANT-HEAD CELLS


 MAXIMUM STEPSIZE DURING WHICH ANY PARTICLE CANNOT MOVE MORE THAN ONE CELL
 =  4.662    (WHEN MIN. R.F.=1)  AT K=   3, I=   1, J=  39

 MAXIMUM STEPSIZE WHICH MEETS STABILITY CRITERION OF THE ADVECTION TERM
 (FOR PURE FINITE-DIFFERENCE OPTION, MIXELM=0) 
 =  3.307    (WHEN MIN. R.F.=1)  AT K=   2, I=   1, J=  83


 TOTAL NUMBER OF POINT SOURCES/SINKS PRESENT IN THE FLOW MODEL =    62

 MAXIMUM STEPSIZE WHICH MEETS STABILITY CRITERION OF THE SINK & SOURCE TERM
 =  47.72    (WHEN MIN. R.F.=1)  AT K=   2, I=   1, J= 120

 MAXIMUM STEPSIZE WHICH MEETS STABILITY CRITERION OF THE DISPERSION TERM
 =  20.29    (WHEN MIN. R.F.=1)  AT K=   1, I=   1, J=  31
     1 CALLS TO GCG PACKAGE FOR TRANSPORT TIME STEP   3 IN FLOW TIME STEP  33 STRESS PERIOD   1
     6 TOTAL ITERATIONS
 
 SOLVING FOR HEAD 
 FLOW MODEL IS TRANSIENT
 FLOW MODEL CONTAINS CONSTANT-HEAD CELLS


 MAXIMUM STEPSIZE DURING WHICH ANY PARTICLE CANNOT MOVE MORE THAN ONE CELL
 =  4.276    (WHEN MIN. R.F.=1)  AT K=   3, I=   1, J=  82

 MAXIMUM STEPSIZE WHICH MEETS STABILITY CRITERION OF THE ADVECTION TERM
 (FOR PURE FINITE-DIFFERENCE OPTION, MIXELM=0) 
 =  3.259    (WHEN MIN. R.F.=1)  AT K=   2, I=   1, J=  39


 TOTAL NUMBER OF POINT SOURCES/SINKS PRESENT IN THE FLOW MODEL =    62

 MAXIMUM STEPSIZE WHICH MEETS STABILITY CRITERION OF THE SINK & SOURCE TERM
 =  48.21    (WHEN MIN. R.F.=1)  AT K=   2, I=   1, J= 120

 MAXIMUM STEPSIZE WHICH MEETS STABILITY CRITERION OF THE DISPERSION TERM
 =  20.29    (WHEN MIN. R.F.=1)  AT K=   1, I=   1, J=  31
     1 CALLS TO GCG PACKAGE FOR TRANSPORT TIME STEP   4 IN FLOW TIME STEP  33 STRESS PERIOD   1
     6 TOTAL ITERATIONS
  MAXIMUM CONCENTRATION CHANGES FOR EACH ITERATION:
  MAX. CHANGE LAYER,ROW,COL MAX. CHANGE LAYER,ROW,COL MAX. CHANGE LAYER,ROW,COL MAX. CHANGE LAYER,ROW,COL MAX. CHANGE LAYER,ROW,COL
 ------------------------------------------------------------------------------------------------------------------------------------
   0.3893E-01 (  2,  1, 62)  0.1961E-02 (  2,  1, 51)  0.1010E-03 (  3,  1, 51)  0.4137E-05 (  3,  1, 52)  0.2659E-06 (  4,  1, 52)
   0.1454E-07 (  4,  1, 49)


                                          ================================================
                                                         FROM TIME =   330.00     TO    340.00    

 
 SOLVING FOR HEAD 
 FLOW MODEL IS TRANSIENT
 FLOW MODEL CONTAINS CONSTANT-HEAD CELLS


 MAXIMUM STEPSIZE DURING WHICH ANY PARTICLE CANNOT MOVE MORE THAN ONE CELL
 =  4.028    (WHEN MIN. R.F.=1)  AT K=   3, I=   1, J=  82

 MAXIMUM STEPSIZE WHICH MEETS STABILITY CRITERION OF THE ADVECTION TERM
 (FOR PURE FINITE-DIFFERENCE OPTION, MIXELM=0) 
 =  3.081    (WHEN MIN. R.F.=1)  AT K=   2, I=   1, J=  82


 TOTAL NUMBER OF POINT SOURCES/SINKS PRESENT IN THE FLOW MODEL =    62

 MAXIMUM STEPSIZE WHICH MEETS STABILITY CRITERION OF THE SINK & SOURCE TERM
 =  48.75    (WHEN MIN. R.F.=1)  AT K=   2, I=   1, J= 120

 MAXIMUM STEPSIZE WHICH MEETS STABILITY CRITERION OF THE DISPERSION TERM
 =  20.29    (WHEN MIN. R.F.=1)  AT K=   1, I=   1, J=  31


     1 CALLS TO GCG PACKAGE FOR TRANSPORT TIME STEP   1 IN FLOW TIME STEP  34 STRESS PERIOD   1
     6 TOTAL ITERATIONS

 NO OUTPUT CONTROL FOR STRESS PERIOD    1   TIME STEP  34
 
 SOLVING FOR HEAD 
 FLOW MODEL IS TRANSIENT
 FLOW MODEL CONTAINS CONSTANT-HEAD CELLS


 MAXIMUM STEPSIZE DURING WHICH ANY PARTICLE CANNOT MOVE MORE THAN ONE CELL
 =  3.900    (WHEN MIN. R.F.=1)  AT K=   3, I=   1, J=  82

 MAXIMUM STEPSIZE WHICH MEETS STABILITY CRITERION OF THE ADVECTION TERM
 (FOR PURE FINITE-DIFFERENCE OPTION, MIXELM=0) 
 =  2.965    (WHEN MIN. R.F.=1)  AT K=   2, I=   1, J=  82


 TOTAL NUMBER OF POINT SOURCES/SINKS PRESENT IN THE FLOW MODEL =    62

 MAXIMUM STEPSIZE WHICH MEETS STABILITY CRITERION OF THE SINK & SOURCE TERM
 =  49.47    (WHEN MIN. R.F.=1)  AT K=   2, I=   1, J= 120

 MAXIMUM STEPSIZE WHICH MEETS STABILITY CRITERION OF THE DISPERSION TERM
 =  20.29    (WHEN MIN. R.F.=1)  AT K=   1, I=   1, J=  31
     1 CALLS TO GCG PACKAGE FOR TRANSPORT TIME STEP   2 IN FLOW TIME STEP  34 STRESS PERIOD   1
     6 TOTAL ITERATIONS
 
 SOLVING FOR HEAD 
 FLOW MODEL IS TRANSIENT
 FLOW MODEL CONTAINS CONSTANT-HEAD CELLS


 MAXIMUM STEPSIZE DURING WHICH ANY PARTICLE CANNOT MOVE MORE THAN ONE CELL
 =  3.854    (WHEN MIN. R.F.=1)  AT K=   4, I=   1, J=  82

 MAXIMUM STEPSIZE WHICH MEETS STABILITY CRITERION OF THE ADVECTION TERM
 (FOR PURE FINITE-DIFFERENCE OPTION, MIXELM=0) 
 =  2.914    (WHEN MIN. R.F.=1)  AT K=   2, I=   1, J=  82


 TOTAL NUMBER OF POINT SOURCES/SINKS PRESENT IN THE FLOW MODEL =    62

 MAXIMUM STEPSIZE WHICH MEETS STABILITY CRITERION OF THE SINK & SOURCE TERM
 =  50.33    (WHEN MIN. R.F.=1)  AT K=   2, I=   1, J= 120

 MAXIMUM STEPSIZE WHICH MEETS STABILITY CRITERION OF THE DISPERSION TERM
 =  20.29    (WHEN MIN. R.F.=1)  AT K=   1, I=   1, J=  31
     1 CALLS TO GCG PACKAGE FOR TRANSPORT TIME STEP   3 IN FLOW TIME STEP  34 STRESS PERIOD   1
     6 TOTAL ITERATIONS
 
 SOLVING FOR HEAD 
 FLOW MODEL IS TRANSIENT
 FLOW MODEL CONTAINS CONSTANT-HEAD CELLS


 MAXIMUM STEPSIZE DURING WHICH ANY PARTICLE CANNOT MOVE MORE THAN ONE CELL
 =  3.785    (WHEN MIN. R.F.=1)  AT K=   4, I=   1, J=  82

 MAXIMUM STEPSIZE WHICH MEETS STABILITY CRITERION OF THE ADVECTION TERM
 (FOR PURE FINITE-DIFFERENCE OPTION, MIXELM=0) 
 =  2.901    (WHEN MIN. R.F.=1)  AT K=   2, I=   1, J=  82


 TOTAL NUMBER OF POINT SOURCES/SINKS PRESENT IN THE FLOW MODEL =    62

 MAXIMUM STEPSIZE WHICH MEETS STABILITY CRITERION OF THE SINK & SOURCE TERM
 =  51.23    (WHEN MIN. R.F.=1)  AT K=   2, I=   1, J= 120

 MAXIMUM STEPSIZE WHICH MEETS STABILITY CRITERION OF THE DISPERSION TERM
 =  20.29    (WHEN MIN. R.F.=1)  AT K=   1, I=   1, J=  31
     1 CALLS TO GCG PACKAGE FOR TRANSPORT TIME STEP   4 IN FLOW TIME STEP  34 STRESS PERIOD   1
     6 TOTAL ITERATIONS
 
 SOLVING FOR HEAD 
 FLOW MODEL IS TRANSIENT
 FLOW MODEL CONTAINS CONSTANT-HEAD CELLS


 MAXIMUM STEPSIZE DURING WHICH ANY PARTICLE CANNOT MOVE MORE THAN ONE CELL
 =  3.786    (WHEN MIN. R.F.=1)  AT K=   4, I=   1, J=  82

 MAXIMUM STEPSIZE WHICH MEETS STABILITY CRITERION OF THE ADVECTION TERM
 (FOR PURE FINITE-DIFFERENCE OPTION, MIXELM=0) 
 =  2.915    (WHEN MIN. R.F.=1)  AT K=   2, I=   1, J=  82


 TOTAL NUMBER OF POINT SOURCES/SINKS PRESENT IN THE FLOW MODEL =    62

 MAXIMUM STEPSIZE WHICH MEETS STABILITY CRITERION OF THE SINK & SOURCE TERM
 =  51.43    (WHEN MIN. R.F.=1)  AT K=   2, I=   1, J= 120

 MAXIMUM STEPSIZE WHICH MEETS STABILITY CRITERION OF THE DISPERSION TERM
 =  20.29    (WHEN MIN. R.F.=1)  AT K=   1, I=   1, J=  31
     1 CALLS TO GCG PACKAGE FOR TRANSPORT TIME STEP   5 IN FLOW TIME STEP  34 STRESS PERIOD   1
     4 TOTAL ITERATIONS
  MAXIMUM CONCENTRATION CHANGES FOR EACH ITERATION:
  MAX. CHANGE LAYER,ROW,COL MAX. CHANGE LAYER,ROW,COL MAX. CHANGE LAYER,ROW,COL MAX. CHANGE LAYER,ROW,COL MAX. CHANGE LAYER,ROW,COL
 ------------------------------------------------------------------------------------------------------------------------------------
   0.1366E-01 (  2,  1, 52)  0.1859E-03 (  2,  1, 47)  0.3160E-05 (  2,  1, 76)  0.5680E-07 (  3,  1, 46)


                                          ================================================
                                                         FROM TIME =   340.00     TO    350.00    

 
 SOLVING FOR HEAD 
 FLOW MODEL IS TRANSIENT
 FLOW MODEL CONTAINS CONSTANT-HEAD CELLS


 MAXIMUM STEPSIZE DURING WHICH ANY PARTICLE CANNOT MOVE MORE THAN ONE CELL
 =  3.799    (WHEN MIN. R.F.=1)  AT K=   4, I=   1, J=  82

 MAXIMUM STEPSIZE WHICH MEETS STABILITY CRITERION OF THE ADVECTION TERM
 (FOR PURE FINITE-DIFFERENCE OPTION, MIXELM=0) 
 =  2.930    (WHEN MIN. R.F.=1)  AT K=   2, I=   1, J=  82


 TOTAL NUMBER OF POINT SOURCES/SINKS PRESENT IN THE FLOW MODEL =    62

 MAXIMUM STEPSIZE WHICH MEETS STABILITY CRITERION OF THE SINK & SOURCE TERM
 =  55.00    (WHEN MIN. R.F.=1)  AT K=   2, I=   1, J= 120

 MAXIMUM STEPSIZE WHICH MEETS STABILITY CRITERION OF THE DISPERSION TERM
 =  20.29    (WHEN MIN. R.F.=1)  AT K=   1, I=   1, J=  31


     1 CALLS TO GCG PACKAGE FOR TRANSPORT TIME STEP   1 IN FLOW TIME STEP  35 STRESS PERIOD   1
     6 TOTAL ITERATIONS

 NO OUTPUT CONTROL FOR STRESS PERIOD    1   TIME STEP  35
 
 SOLVING FOR HEAD 
 FLOW MODEL IS TRANSIENT
 FLOW MODEL CONTAINS CONSTANT-HEAD CELLS


 MAXIMUM STEPSIZE DURING WHICH ANY PARTICLE CANNOT MOVE MORE THAN ONE CELL
 =  3.857    (WHEN MIN. R.F.=1)  AT K=   4, I=   1, J=  82

 MAXIMUM STEPSIZE WHICH MEETS STABILITY CRITERION OF THE ADVECTION TERM
 (FOR PURE FINITE-DIFFERENCE OPTION, MIXELM=0) 
 =  2.968    (WHEN MIN. R.F.=1)  AT K=   2, I=   1, J=  82


 TOTAL NUMBER OF POINT SOURCES/SINKS PRESENT IN THE FLOW MODEL =    62

 MAXIMUM STEPSIZE WHICH MEETS STABILITY CRITERION OF THE SINK & SOURCE TERM
 =  52.68    (WHEN MIN. R.F.=1)  AT K=   2, I=   1, J= 120

 MAXIMUM STEPSIZE WHICH MEETS STABILITY CRITERION OF THE DISPERSION TERM
 =  20.29    (WHEN MIN. R.F.=1)  AT K=   1, I=   1, J=  31
     1 CALLS TO GCG PACKAGE FOR TRANSPORT TIME STEP   2 IN FLOW TIME STEP  35 STRESS PERIOD   1
     6 TOTAL ITERATIONS
 
 SOLVING FOR HEAD 
 FLOW MODEL IS TRANSIENT
 FLOW MODEL CONTAINS CONSTANT-HEAD CELLS


 MAXIMUM STEPSIZE DURING WHICH ANY PARTICLE CANNOT MOVE MORE THAN ONE CELL
 =  3.955    (WHEN MIN. R.F.=1)  AT K=   4, I=   1, J=  82

 MAXIMUM STEPSIZE WHICH MEETS STABILITY CRITERION OF THE ADVECTION TERM
 (FOR PURE FINITE-DIFFERENCE OPTION, MIXELM=0) 
 =  3.018    (WHEN MIN. R.F.=1)  AT K=   2, I=   1, J=  82


 TOTAL NUMBER OF POINT SOURCES/SINKS PRESENT IN THE FLOW MODEL =    62

 MAXIMUM STEPSIZE WHICH MEETS STABILITY CRITERION OF THE SINK & SOURCE TERM
 =  53.19    (WHEN MIN. R.F.=1)  AT K=   2, I=   1, J= 120

 MAXIMUM STEPSIZE WHICH MEETS STABILITY CRITERION OF THE DISPERSION TERM
 =  20.29    (WHEN MIN. R.F.=1)  AT K=   1, I=   1, J=  31
     1 CALLS TO GCG PACKAGE FOR TRANSPORT TIME STEP   3 IN FLOW TIME STEP  35 STRESS PERIOD   1
     6 TOTAL ITERATIONS
 
 SOLVING FOR HEAD 
 FLOW MODEL IS TRANSIENT
 FLOW MODEL CONTAINS CONSTANT-HEAD CELLS


 MAXIMUM STEPSIZE DURING WHICH ANY PARTICLE CANNOT MOVE MORE THAN ONE CELL
 =  4.089    (WHEN MIN. R.F.=1)  AT K=   4, I=   1, J=  82

 MAXIMUM STEPSIZE WHICH MEETS STABILITY CRITERION OF THE ADVECTION TERM
 (FOR PURE FINITE-DIFFERENCE OPTION, MIXELM=0) 
 =  3.094    (WHEN MIN. R.F.=1)  AT K=   2, I=   1, J=  82


 TOTAL NUMBER OF POINT SOURCES/SINKS PRESENT IN THE FLOW MODEL =    62

 MAXIMUM STEPSIZE WHICH MEETS STABILITY CRITERION OF THE SINK & SOURCE TERM
 =  53.85    (WHEN MIN. R.F.=1)  AT K=   2, I=   1, J= 120

 MAXIMUM STEPSIZE WHICH MEETS STABILITY CRITERION OF THE DISPERSION TERM
 =  20.29    (WHEN MIN. R.F.=1)  AT K=   1, I=   1, J=  31
     1 CALLS TO GCG PACKAGE FOR TRANSPORT TIME STEP   4 IN FLOW TIME STEP  35 STRESS PERIOD   1
     6 TOTAL ITERATIONS
 
 SOLVING FOR HEAD 
 FLOW MODEL IS TRANSIENT
 FLOW MODEL CONTAINS CONSTANT-HEAD CELLS


 MAXIMUM STEPSIZE DURING WHICH ANY PARTICLE CANNOT MOVE MORE THAN ONE CELL
 =  4.253    (WHEN MIN. R.F.=1)  AT K=   5, I=   1, J=  82

 MAXIMUM STEPSIZE WHICH MEETS STABILITY CRITERION OF THE ADVECTION TERM
 (FOR PURE FINITE-DIFFERENCE OPTION, MIXELM=0) 
 =  3.229    (WHEN MIN. R.F.=1)  AT K=   2, I=   1, J=  82


 TOTAL NUMBER OF POINT SOURCES/SINKS PRESENT IN THE FLOW MODEL =    62

 MAXIMUM STEPSIZE WHICH MEETS STABILITY CRITERION OF THE SINK & SOURCE TERM
 =  54.14    (WHEN MIN. R.F.=1)  AT K=   2, I=   1, J= 120

 MAXIMUM STEPSIZE WHICH MEETS STABILITY CRITERION OF THE DISPERSION TERM
 =  20.29    (WHEN MIN. R.F.=1)  AT K=   1, I=   1, J=  31
     1 CALLS TO GCG PACKAGE FOR TRANSPORT TIME STEP   5 IN FLOW TIME STEP  35 STRESS PERIOD   1
     5 TOTAL ITERATIONS
  MAXIMUM CONCENTRATION CHANGES FOR EACH ITERATION:
  MAX. CHANGE LAYER,ROW,COL MAX. CHANGE LAYER,ROW,COL MAX. CHANGE LAYER,ROW,COL MAX. CHANGE LAYER,ROW,COL MAX. CHANGE LAYER,ROW,COL
 ------------------------------------------------------------------------------------------------------------------------------------
   0.1822E-01 (  2,  1, 62)  0.3846E-03 (  2,  1, 72)  0.7982E-05 (  3,  1, 50)  0.1753E-06 (  3,  1, 46)  0.4974E-08 (  4,  1, 75)


                                          ================================================
                                                         FROM TIME =   350.00     TO    360.00    

 
 SOLVING FOR HEAD 
 FLOW MODEL IS TRANSIENT
 FLOW MODEL CONTAINS CONSTANT-HEAD CELLS


 MAXIMUM STEPSIZE DURING WHICH ANY PARTICLE CANNOT MOVE MORE THAN ONE CELL
 =  4.316    (WHEN MIN. R.F.=1)  AT K=   5, I=   1, J=  82

 MAXIMUM STEPSIZE WHICH MEETS STABILITY CRITERION OF THE ADVECTION TERM
 (FOR PURE FINITE-DIFFERENCE OPTION, MIXELM=0) 
 =  3.270    (WHEN MIN. R.F.=1)  AT K=   2, I=   1, J=  82


 TOTAL NUMBER OF POINT SOURCES/SINKS PRESENT IN THE FLOW MODEL =    62

 MAXIMUM STEPSIZE WHICH MEETS STABILITY CRITERION OF THE SINK & SOURCE TERM
 =  57.81    (WHEN MIN. R.F.=1)  AT K=   2, I=   1, J= 120

 MAXIMUM STEPSIZE WHICH MEETS STABILITY CRITERION OF THE DISPERSION TERM
 =  20.29    (WHEN MIN. R.F.=1)  AT K=   1, I=   1, J=  31


     1 CALLS TO GCG PACKAGE FOR TRANSPORT TIME STEP   1 IN FLOW TIME STEP  36 STRESS PERIOD   1
     6 TOTAL ITERATIONS

 NO OUTPUT CONTROL FOR STRESS PERIOD    1   TIME STEP  36
 
 SOLVING FOR HEAD 
 FLOW MODEL IS TRANSIENT
 FLOW MODEL CONTAINS CONSTANT-HEAD CELLS


 MAXIMUM STEPSIZE DURING WHICH ANY PARTICLE CANNOT MOVE MORE THAN ONE CELL
 =  4.476    (WHEN MIN. R.F.=1)  AT K=   5, I=   1, J=  82

 MAXIMUM STEPSIZE WHICH MEETS STABILITY CRITERION OF THE ADVECTION TERM
 (FOR PURE FINITE-DIFFERENCE OPTION, MIXELM=0) 
 =  3.441    (WHEN MIN. R.F.=1)  AT K=   2, I=   1, J=  39


 TOTAL NUMBER OF POINT SOURCES/SINKS PRESENT IN THE FLOW MODEL =    62

 MAXIMUM STEPSIZE WHICH MEETS STABILITY CRITERION OF THE SINK & SOURCE TERM
 =  55.47    (WHEN MIN. R.F.=1)  AT K=   2, I=   1, J= 120

 MAXIMUM STEPSIZE WHICH MEETS STABILITY CRITERION OF THE DISPERSION TERM
 =  20.29    (WHEN MIN. R.F.=1)  AT K=   1, I=   1, J=  31
     1 CALLS TO GCG PACKAGE FOR TRANSPORT TIME STEP   2 IN FLOW TIME STEP  36 STRESS PERIOD   1
     6 TOTAL ITERATIONS
 
 SOLVING FOR HEAD 
 FLOW MODEL IS TRANSIENT
 FLOW MODEL CONTAINS CONSTANT-HEAD CELLS


 MAXIMUM STEPSIZE DURING WHICH ANY PARTICLE CANNOT MOVE MORE THAN ONE CELL
 =  4.332    (WHEN MIN. R.F.=1)  AT K=   3, I=   1, J=  40

 MAXIMUM STEPSIZE WHICH MEETS STABILITY CRITERION OF THE ADVECTION TERM
 (FOR PURE FINITE-DIFFERENCE OPTION, MIXELM=0) 
 =  3.578    (WHEN MIN. R.F.=1)  AT K=   2, I=   1, J=  40


 TOTAL NUMBER OF POINT SOURCES/SINKS PRESENT IN THE FLOW MODEL =    62

 MAXIMUM STEPSIZE WHICH MEETS STABILITY CRITERION OF THE SINK & SOURCE TERM
 =  56.83    (WHEN MIN. R.F.=1)  AT K=   2, I=   1, J= 120

 MAXIMUM STEPSIZE WHICH MEETS STABILITY CRITERION OF THE DISPERSION TERM
 =  20.29    (WHEN MIN. R.F.=1)  AT K=   1, I=   1, J=  31
     1 CALLS TO GCG PACKAGE FOR TRANSPORT TIME STEP   3 IN FLOW TIME STEP  36 STRESS PERIOD   1
     6 TOTAL ITERATIONS
 
 SOLVING FOR HEAD 
 FLOW MODEL IS TRANSIENT
 FLOW MODEL CONTAINS CONSTANT-HEAD CELLS


 MAXIMUM STEPSIZE DURING WHICH ANY PARTICLE CANNOT MOVE MORE THAN ONE CELL
 =  4.190    (WHEN MIN. R.F.=1)  AT K=   3, I=   1, J=  40

 MAXIMUM STEPSIZE WHICH MEETS STABILITY CRITERION OF THE ADVECTION TERM
 (FOR PURE FINITE-DIFFERENCE OPTION, MIXELM=0) 
 =  3.416    (WHEN MIN. R.F.=1)  AT K=   2, I=   1, J=  40


 TOTAL NUMBER OF POINT SOURCES/SINKS PRESENT IN THE FLOW MODEL =    62

 MAXIMUM STEPSIZE WHICH MEETS STABILITY CRITERION OF THE SINK & SOURCE TERM
 =  58.14    (WHEN MIN. R.F.=1)  AT K=   2, I=   1, J= 120

 MAXIMUM STEPSIZE WHICH MEETS STABILITY CRITERION OF THE DISPERSION TERM
 =  20.29    (WHEN MIN. R.F.=1)  AT K=   1, I=   1, J=  31
     1 CALLS TO GCG PACKAGE FOR TRANSPORT TIME STEP   4 IN FLOW TIME STEP  36 STRESS PERIOD   1
     6 TOTAL ITERATIONS
  MAXIMUM CONCENTRATION CHANGES FOR EACH ITERATION:
  MAX. CHANGE LAYER,ROW,COL MAX. CHANGE LAYER,ROW,COL MAX. CHANGE LAYER,ROW,COL MAX. CHANGE LAYER,ROW,COL MAX. CHANGE LAYER,ROW,COL
 ------------------------------------------------------------------------------------------------------------------------------------
   0.4238E-01 (  2,  1, 62)  0.1824E-02 (  2,  1, 50)  0.1107E-03 (  3,  1, 50)  0.4465E-05 (  3,  1, 51)  0.2193E-06 (  4,  1, 51)
   0.1034E-07 (  4,  1, 64)


                                          ================================================
                                                         FROM TIME =   360.00     TO    370.00    

 
 SOLVING FOR HEAD 
 FLOW MODEL IS TRANSIENT
 FLOW MODEL CONTAINS CONSTANT-HEAD CELLS


 MAXIMUM STEPSIZE DURING WHICH ANY PARTICLE CANNOT MOVE MORE THAN ONE CELL
 =  4.091    (WHEN MIN. R.F.=1)  AT K=   4, I=   1, J=  40

 MAXIMUM STEPSIZE WHICH MEETS STABILITY CRITERION OF THE ADVECTION TERM
 (FOR PURE FINITE-DIFFERENCE OPTION, MIXELM=0) 
 =  3.306    (WHEN MIN. R.F.=1)  AT K=   2, I=   1, J=  40


 TOTAL NUMBER OF POINT SOURCES/SINKS PRESENT IN THE FLOW MODEL =    62

 MAXIMUM STEPSIZE WHICH MEETS STABILITY CRITERION OF THE SINK & SOURCE TERM
 =  59.97    (WHEN MIN. R.F.=1)  AT K=   2, I=   1, J= 120

 MAXIMUM STEPSIZE WHICH MEETS STABILITY CRITERION OF THE DISPERSION TERM
 =  20.29    (WHEN MIN. R.F.=1)  AT K=   1, I=   1, J=  31


     1 CALLS TO GCG PACKAGE FOR TRANSPORT TIME STEP   1 IN FLOW TIME STEP  37 STRESS PERIOD   1
     6 TOTAL ITERATIONS

 NO OUTPUT CONTROL FOR STRESS PERIOD    1   TIME STEP  37
 
 SOLVING FOR HEAD 
 FLOW MODEL IS TRANSIENT
 FLOW MODEL CONTAINS CONSTANT-HEAD CELLS


 MAXIMUM STEPSIZE DURING WHICH ANY PARTICLE CANNOT MOVE MORE THAN ONE CELL
 =  3.986    (WHEN MIN. R.F.=1)  AT K=   4, I=   1, J=  40

 MAXIMUM STEPSIZE WHICH MEETS STABILITY CRITERION OF THE ADVECTION TERM
 (FOR PURE FINITE-DIFFERENCE OPTION, MIXELM=0) 
 =  3.233    (WHEN MIN. R.F.=1)  AT K=   2, I=   1, J=  40


 TOTAL NUMBER OF POINT SOURCES/SINKS PRESENT IN THE FLOW MODEL =    62

 MAXIMUM STEPSIZE WHICH MEETS STABILITY CRITERION OF THE SINK & SOURCE TERM
 =  61.62    (WHEN MIN. R.F.=1)  AT K=   2, I=   1, J= 120

 MAXIMUM STEPSIZE WHICH MEETS STABILITY CRITERION OF THE DISPERSION TERM
 =  20.29    (WHEN MIN. R.F.=1)  AT K=   1, I=   1, J=  31
     1 CALLS TO GCG PACKAGE FOR TRANSPORT TIME STEP   2 IN FLOW TIME STEP  37 STRESS PERIOD   1
     6 TOTAL ITERATIONS
 
 SOLVING FOR HEAD 
 FLOW MODEL IS TRANSIENT
 FLOW MODEL CONTAINS CONSTANT-HEAD CELLS


 MAXIMUM STEPSIZE DURING WHICH ANY PARTICLE CANNOT MOVE MORE THAN ONE CELL
 =  3.937    (WHEN MIN. R.F.=1)  AT K=   4, I=   1, J=  40

 MAXIMUM STEPSIZE WHICH MEETS STABILITY CRITERION OF THE ADVECTION TERM
 (FOR PURE FINITE-DIFFERENCE OPTION, MIXELM=0) 
 =  3.186    (WHEN MIN. R.F.=1)  AT K=   2, I=   1, J=  40


 TOTAL NUMBER OF POINT SOURCES/SINKS PRESENT IN THE FLOW MODEL =    62

 MAXIMUM STEPSIZE WHICH MEETS STABILITY CRITERION OF THE SINK & SOURCE TERM
 =  63.53    (WHEN MIN. R.F.=1)  AT K=   2, I=   1, J= 120

 MAXIMUM STEPSIZE WHICH MEETS STABILITY CRITERION OF THE DISPERSION TERM
 =  20.29    (WHEN MIN. R.F.=1)  AT K=   1, I=   1, J=  31
     1 CALLS TO GCG PACKAGE FOR TRANSPORT TIME STEP   3 IN FLOW TIME STEP  37 STRESS PERIOD   1
     6 TOTAL ITERATIONS
 
 SOLVING FOR HEAD 
 FLOW MODEL IS TRANSIENT
 FLOW MODEL CONTAINS CONSTANT-HEAD CELLS


 MAXIMUM STEPSIZE DURING WHICH ANY PARTICLE CANNOT MOVE MORE THAN ONE CELL
 =  3.937    (WHEN MIN. R.F.=1)  AT K=   4, I=   1, J=  40

 MAXIMUM STEPSIZE WHICH MEETS STABILITY CRITERION OF THE ADVECTION TERM
 (FOR PURE FINITE-DIFFERENCE OPTION, MIXELM=0) 
 =  3.154    (WHEN MIN. R.F.=1)  AT K=   2, I=   1, J=  40


 TOTAL NUMBER OF POINT SOURCES/SINKS PRESENT IN THE FLOW MODEL =    62

 MAXIMUM STEPSIZE WHICH MEETS STABILITY CRITERION OF THE SINK & SOURCE TERM
 =  65.19    (WHEN MIN. R.F.=1)  AT K=   2, I=   1, J= 120

 MAXIMUM STEPSIZE WHICH MEETS STABILITY CRITERION OF THE DISPERSION TERM
 =  20.29    (WHEN MIN. R.F.=1)  AT K=   1, I=   1, J=  31
     1 CALLS TO GCG PACKAGE FOR TRANSPORT TIME STEP   4 IN FLOW TIME STEP  37 STRESS PERIOD   1
     6 TOTAL ITERATIONS
 
 SOLVING FOR HEAD 
 FLOW MODEL IS TRANSIENT
 FLOW MODEL CONTAINS CONSTANT-HEAD CELLS


 MAXIMUM STEPSIZE DURING WHICH ANY PARTICLE CANNOT MOVE MORE THAN ONE CELL
 =  3.956    (WHEN MIN. R.F.=1)  AT K=   4, I=   1, J=  40

 MAXIMUM STEPSIZE WHICH MEETS STABILITY CRITERION OF THE ADVECTION TERM
 (FOR PURE FINITE-DIFFERENCE OPTION, MIXELM=0) 
 =  3.123    (WHEN MIN. R.F.=1)  AT K=   2, I=   1, J=  81


 TOTAL NUMBER OF POINT SOURCES/SINKS PRESENT IN THE FLOW MODEL =    62

 MAXIMUM STEPSIZE WHICH MEETS STABILITY CRITERION OF THE SINK & SOURCE TERM
 =  64.79    (WHEN MIN. R.F.=1)  AT K=   2, I=   1, J= 120

 MAXIMUM STEPSIZE WHICH MEETS STABILITY CRITERION OF THE DISPERSION TERM
 =  20.29    (WHEN MIN. R.F.=1)  AT K=   1, I=   1, J=  31
     1 CALLS TO GCG PACKAGE FOR TRANSPORT TIME STEP   5 IN FLOW TIME STEP  37 STRESS PERIOD   1
     3 TOTAL ITERATIONS
  MAXIMUM CONCENTRATION CHANGES FOR EACH ITERATION:
  MAX. CHANGE LAYER,ROW,COL MAX. CHANGE LAYER,ROW,COL MAX. CHANGE LAYER,ROW,COL MAX. CHANGE LAYER,ROW,COL MAX. CHANGE LAYER,ROW,COL
 ------------------------------------------------------------------------------------------------------------------------------------
   0.2347E-02 (  2,  1, 62)  0.6475E-05 (  2,  1, 81)  0.1919E-07 (  3,  1, 50)


                                          ================================================
                                                         FROM TIME =   370.00     TO    380.00    

 
 SOLVING FOR HEAD 
 FLOW MODEL IS TRANSIENT
 FLOW MODEL CONTAINS CONSTANT-HEAD CELLS


 MAXIMUM STEPSIZE DURING WHICH ANY PARTICLE CANNOT MOVE MORE THAN ONE CELL
 =  3.959    (WHEN MIN. R.F.=1)  AT K=   4, I=   1, J=  40

 MAXIMUM STEPSIZE WHICH MEETS STABILITY CRITERION OF THE ADVECTION TERM
 (FOR PURE FINITE-DIFFERENCE OPTION, MIXELM=0) 
 =  3.121    (WHEN MIN. R.F.=1)  AT K=   2, I=   1, J=  81


 TOTAL NUMBER OF POINT SOURCES/SINKS PRESENT IN THE FLOW MODEL =    62

 MAXIMUM STEPSIZE WHICH MEETS STABILITY CRITERION OF THE SINK & SOURCE TERM
 =  70.89    (WHEN MIN. R.F.=1)  AT K=   2, I=   1, J= 120

 MAXIMUM STEPSIZE WHICH MEETS STABILITY CRITERION OF THE DISPERSION TERM
 =  20.29    (WHEN MIN. R.F.=1)  AT K=   1, I=   1, J=  31


     1 CALLS TO GCG PACKAGE FOR TRANSPORT TIME STEP   1 IN FLOW TIME STEP  38 STRESS PERIOD   1
     6 TOTAL ITERATIONS

 NO OUTPUT CONTROL FOR STRESS PERIOD    1   TIME STEP  38
 
 SOLVING FOR HEAD 
 FLOW MODEL IS TRANSIENT
 FLOW MODEL CONTAINS CONSTANT-HEAD CELLS


 MAXIMUM STEPSIZE DURING WHICH ANY PARTICLE CANNOT MOVE MORE THAN ONE CELL
 =  3.974    (WHEN MIN. R.F.=1)  AT K=   4, I=   1, J=  81

 MAXIMUM STEPSIZE WHICH MEETS STABILITY CRITERION OF THE ADVECTION TERM
 (FOR PURE FINITE-DIFFERENCE OPTION, MIXELM=0) 
 =  3.071    (WHEN MIN. R.F.=1)  AT K=   2, I=   1, J=  81


 TOTAL NUMBER OF POINT SOURCES/SINKS PRESENT IN THE FLOW MODEL =    62

 MAXIMUM STEPSIZE WHICH MEETS STABILITY CRITERION OF THE SINK & SOURCE TERM
 =  69.31    (WHEN MIN. R.F.=1)  AT K=   2, I=   1, J= 120

 MAXIMUM STEPSIZE WHICH MEETS STABILITY CRITERION OF THE DISPERSION TERM
 =  20.29    (WHEN MIN. R.F.=1)  AT K=   1, I=   1, J=  31
     1 CALLS TO GCG PACKAGE FOR TRANSPORT TIME STEP   2 IN FLOW TIME STEP  38 STRESS PERIOD   1
     6 TOTAL ITERATIONS
 
 SOLVING FOR HEAD 
 FLOW MODEL IS TRANSIENT
 FLOW MODEL CONTAINS CONSTANT-HEAD CELLS


 MAXIMUM STEPSIZE DURING WHICH ANY PARTICLE CANNOT MOVE MORE THAN ONE CELL
 =  3.978    (WHEN MIN. R.F.=1)  AT K=   4, I=   1, J=  81

 MAXIMUM STEPSIZE WHICH MEETS STABILITY CRITERION OF THE ADVECTION TERM
 (FOR PURE FINITE-DIFFERENCE OPTION, MIXELM=0) 
 =  3.032    (WHEN MIN. R.F.=1)  AT K=   2, I=   1, J=  81


 TOTAL NUMBER OF POINT SOURCES/SINKS PRESENT IN THE FLOW MODEL =    62

 MAXIMUM STEPSIZE WHICH MEETS STABILITY CRITERION OF THE SINK & SOURCE TERM
 =  69.57    (WHEN MIN. R.F.=1)  AT K=   2, I=   1, J= 120

 MAXIMUM STEPSIZE WHICH MEETS STABILITY CRITERION OF THE DISPERSION TERM
 =  20.29    (WHEN MIN. R.F.=1)  AT K=   1, I=   1, J=  31
     1 CALLS TO GCG PACKAGE FOR TRANSPORT TIME STEP   3 IN FLOW TIME STEP  38 STRESS PERIOD   1
     6 TOTAL ITERATIONS
 
 SOLVING FOR HEAD 
 FLOW MODEL IS TRANSIENT
 FLOW MODEL CONTAINS CONSTANT-HEAD CELLS


 MAXIMUM STEPSIZE DURING WHICH ANY PARTICLE CANNOT MOVE MORE THAN ONE CELL
 =  3.994    (WHEN MIN. R.F.=1)  AT K=   4, I=   1, J=  81

 MAXIMUM STEPSIZE WHICH MEETS STABILITY CRITERION OF THE ADVECTION TERM
 (FOR PURE FINITE-DIFFERENCE OPTION, MIXELM=0) 
 =  3.003    (WHEN MIN. R.F.=1)  AT K=   2, I=   1, J=  81


 TOTAL NUMBER OF POINT SOURCES/SINKS PRESENT IN THE FLOW MODEL =    62

 MAXIMUM STEPSIZE WHICH MEETS STABILITY CRITERION OF THE SINK & SOURCE TERM
 =  70.25    (WHEN MIN. R.F.=1)  AT K=   2, I=   1, J= 120

 MAXIMUM STEPSIZE WHICH MEETS STABILITY CRITERION OF THE DISPERSION TERM
 =  20.29    (WHEN MIN. R.F.=1)  AT K=   1, I=   1, J=  31
     1 CALLS TO GCG PACKAGE FOR TRANSPORT TIME STEP   4 IN FLOW TIME STEP  38 STRESS PERIOD   1
     6 TOTAL ITERATIONS
 
 SOLVING FOR HEAD 
 FLOW MODEL IS TRANSIENT
 FLOW MODEL CONTAINS CONSTANT-HEAD CELLS


 MAXIMUM STEPSIZE DURING WHICH ANY PARTICLE CANNOT MOVE MORE THAN ONE CELL
 =  4.022    (WHEN MIN. R.F.=1)  AT K=   4, I=   1, J=  81

 MAXIMUM STEPSIZE WHICH MEETS STABILITY CRITERION OF THE ADVECTION TERM
 (FOR PURE FINITE-DIFFERENCE OPTION, MIXELM=0) 
 =  2.986    (WHEN MIN. R.F.=1)  AT K=   2, I=   1, J=  81


 TOTAL NUMBER OF POINT SOURCES/SINKS PRESENT IN THE FLOW MODEL =    62

 MAXIMUM STEPSIZE WHICH MEETS STABILITY CRITERION OF THE SINK & SOURCE TERM
 =  70.23    (WHEN MIN. R.F.=1)  AT K=   2, I=   1, J= 120

 MAXIMUM STEPSIZE WHICH MEETS STABILITY CRITERION OF THE DISPERSION TERM
 =  20.29    (WHEN MIN. R.F.=1)  AT K=   1, I=   1, J=  31
     1 CALLS TO GCG PACKAGE FOR TRANSPORT TIME STEP   5 IN FLOW TIME STEP  38 STRESS PERIOD   1
     4 TOTAL ITERATIONS
  MAXIMUM CONCENTRATION CHANGES FOR EACH ITERATION:
  MAX. CHANGE LAYER,ROW,COL MAX. CHANGE LAYER,ROW,COL MAX. CHANGE LAYER,ROW,COL MAX. CHANGE LAYER,ROW,COL MAX. CHANGE LAYER,ROW,COL
 ------------------------------------------------------------------------------------------------------------------------------------
   0.1214E-01 (  2,  1, 62)  0.1765E-03 (  2,  1, 81)  0.2216E-05 (  3,  1, 81)  0.3482E-07 (  3,  1, 80)


                                          ================================================
                                                         FROM TIME =   380.00     TO    390.00    

 
 SOLVING FOR HEAD 
 FLOW MODEL IS TRANSIENT
 FLOW MODEL CONTAINS CONSTANT-HEAD CELLS


 MAXIMUM STEPSIZE DURING WHICH ANY PARTICLE CANNOT MOVE MORE THAN ONE CELL
 =  4.034    (WHEN MIN. R.F.=1)  AT K=   4, I=   1, J=  81

 MAXIMUM STEPSIZE WHICH MEETS STABILITY CRITERION OF THE ADVECTION TERM
 (FOR PURE FINITE-DIFFERENCE OPTION, MIXELM=0) 
 =  2.985    (WHEN MIN. R.F.=1)  AT K=   2, I=   1, J=  81


 TOTAL NUMBER OF POINT SOURCES/SINKS PRESENT IN THE FLOW MODEL =    62

 MAXIMUM STEPSIZE WHICH MEETS STABILITY CRITERION OF THE SINK & SOURCE TERM
 =  73.85    (WHEN MIN. R.F.=1)  AT K=   2, I=   1, J= 120

 MAXIMUM STEPSIZE WHICH MEETS STABILITY CRITERION OF THE DISPERSION TERM
 =  20.29    (WHEN MIN. R.F.=1)  AT K=   1, I=   1, J=  31


     1 CALLS TO GCG PACKAGE FOR TRANSPORT TIME STEP   1 IN FLOW TIME STEP  39 STRESS PERIOD   1
     6 TOTAL ITERATIONS

 NO OUTPUT CONTROL FOR STRESS PERIOD    1   TIME STEP  39
 
 SOLVING FOR HEAD 
 FLOW MODEL IS TRANSIENT
 FLOW MODEL CONTAINS CONSTANT-HEAD CELLS


 MAXIMUM STEPSIZE DURING WHICH ANY PARTICLE CANNOT MOVE MORE THAN ONE CELL
 =  4.083    (WHEN MIN. R.F.=1)  AT K=   4, I=   1, J=  81

 MAXIMUM STEPSIZE WHICH MEETS STABILITY CRITERION OF THE ADVECTION TERM
 (FOR PURE FINITE-DIFFERENCE OPTION, MIXELM=0) 
 =  2.989    (WHEN MIN. R.F.=1)  AT K=   2, I=   1, J=  81


 TOTAL NUMBER OF POINT SOURCES/SINKS PRESENT IN THE FLOW MODEL =    62

 MAXIMUM STEPSIZE WHICH MEETS STABILITY CRITERION OF THE SINK & SOURCE TERM
 =  71.34    (WHEN MIN. R.F.=1)  AT K=   2, I=   1, J= 120

 MAXIMUM STEPSIZE WHICH MEETS STABILITY CRITERION OF THE DISPERSION TERM
 =  20.29    (WHEN MIN. R.F.=1)  AT K=   1, I=   1, J=  31
     1 CALLS TO GCG PACKAGE FOR TRANSPORT TIME STEP   2 IN FLOW TIME STEP  39 STRESS PERIOD   1
     6 TOTAL ITERATIONS
 
 SOLVING FOR HEAD 
 FLOW MODEL IS TRANSIENT
 FLOW MODEL CONTAINS CONSTANT-HEAD CELLS


 MAXIMUM STEPSIZE DURING WHICH ANY PARTICLE CANNOT MOVE MORE THAN ONE CELL
 =  4.155    (WHEN MIN. R.F.=1)  AT K=   4, I=   1, J=  81

 MAXIMUM STEPSIZE WHICH MEETS STABILITY CRITERION OF THE ADVECTION TERM
 (FOR PURE FINITE-DIFFERENCE OPTION, MIXELM=0) 
 =  3.009    (WHEN MIN. R.F.=1)  AT K=   2, I=   1, J=  81


 TOTAL NUMBER OF POINT SOURCES/SINKS PRESENT IN THE FLOW MODEL =    62

 MAXIMUM STEPSIZE WHICH MEETS STABILITY CRITERION OF THE SINK & SOURCE TERM
 =  71.40    (WHEN MIN. R.F.=1)  AT K=   2, I=   1, J= 120

 MAXIMUM STEPSIZE WHICH MEETS STABILITY CRITERION OF THE DISPERSION TERM
 =  20.29    (WHEN MIN. R.F.=1)  AT K=   1, I=   1, J=  31
     1 CALLS TO GCG PACKAGE FOR TRANSPORT TIME STEP   3 IN FLOW TIME STEP  39 STRESS PERIOD   1
     6 TOTAL ITERATIONS
 
 SOLVING FOR HEAD 
 FLOW MODEL IS TRANSIENT
 FLOW MODEL CONTAINS CONSTANT-HEAD CELLS


 MAXIMUM STEPSIZE DURING WHICH ANY PARTICLE CANNOT MOVE MORE THAN ONE CELL
 =  4.252    (WHEN MIN. R.F.=1)  AT K=   4, I=   1, J=  81

 MAXIMUM STEPSIZE WHICH MEETS STABILITY CRITERION OF THE ADVECTION TERM
 (FOR PURE FINITE-DIFFERENCE OPTION, MIXELM=0) 
 =  3.050    (WHEN MIN. R.F.=1)  AT K=   2, I=   1, J=  81


 TOTAL NUMBER OF POINT SOURCES/SINKS PRESENT IN THE FLOW MODEL =    62

 MAXIMUM STEPSIZE WHICH MEETS STABILITY CRITERION OF THE SINK & SOURCE TERM
 =  71.53    (WHEN MIN. R.F.=1)  AT K=   2, I=   1, J= 120

 MAXIMUM STEPSIZE WHICH MEETS STABILITY CRITERION OF THE DISPERSION TERM
 =  20.29    (WHEN MIN. R.F.=1)  AT K=   1, I=   1, J=  31
     1 CALLS TO GCG PACKAGE FOR TRANSPORT TIME STEP   4 IN FLOW TIME STEP  39 STRESS PERIOD   1
     6 TOTAL ITERATIONS
 
 SOLVING FOR HEAD 
 FLOW MODEL IS TRANSIENT
 FLOW MODEL CONTAINS CONSTANT-HEAD CELLS


 MAXIMUM STEPSIZE DURING WHICH ANY PARTICLE CANNOT MOVE MORE THAN ONE CELL
 =  4.396    (WHEN MIN. R.F.=1)  AT K=   4, I=   1, J=  81

 MAXIMUM STEPSIZE WHICH MEETS STABILITY CRITERION OF THE ADVECTION TERM
 (FOR PURE FINITE-DIFFERENCE OPTION, MIXELM=0) 
 =  3.171    (WHEN MIN. R.F.=1)  AT K=   2, I=   1, J=  81


 TOTAL NUMBER OF POINT SOURCES/SINKS PRESENT IN THE FLOW MODEL =    62

 MAXIMUM STEPSIZE WHICH MEETS STABILITY CRITERION OF THE SINK & SOURCE TERM
 =  71.09    (WHEN MIN. R.F.=1)  AT K=   2, I=   1, J= 120

 MAXIMUM STEPSIZE WHICH MEETS STABILITY CRITERION OF THE DISPERSION TERM
 =  20.29    (WHEN MIN. R.F.=1)  AT K=   1, I=   1, J=  31
     1 CALLS TO GCG PACKAGE FOR TRANSPORT TIME STEP   5 IN FLOW TIME STEP  39 STRESS PERIOD   1
     5 TOTAL ITERATIONS
  MAXIMUM CONCENTRATION CHANGES FOR EACH ITERATION:
  MAX. CHANGE LAYER,ROW,COL MAX. CHANGE LAYER,ROW,COL MAX. CHANGE LAYER,ROW,COL MAX. CHANGE LAYER,ROW,COL MAX. CHANGE LAYER,ROW,COL
 ------------------------------------------------------------------------------------------------------------------------------------
   0.1690E-01 (  2,  1, 62)  0.2646E-03 (  2,  1, 62)  0.5246E-05 (  2,  1, 63)  0.1248E-06 (  3,  1, 63)  0.3604E-08 (  3,  1, 77)


                                          ================================================
                                                         FROM TIME =   390.00     TO    400.00    

 
 SOLVING FOR HEAD 
 FLOW MODEL IS TRANSIENT
 FLOW MODEL CONTAINS CONSTANT-HEAD CELLS


 MAXIMUM STEPSIZE DURING WHICH ANY PARTICLE CANNOT MOVE MORE THAN ONE CELL
 =  4.474    (WHEN MIN. R.F.=1)  AT K=   4, I=   1, J=  81

 MAXIMUM STEPSIZE WHICH MEETS STABILITY CRITERION OF THE ADVECTION TERM
 (FOR PURE FINITE-DIFFERENCE OPTION, MIXELM=0) 
 =  3.220    (WHEN MIN. R.F.=1)  AT K=   2, I=   1, J=  81


 TOTAL NUMBER OF POINT SOURCES/SINKS PRESENT IN THE FLOW MODEL =    62

 MAXIMUM STEPSIZE WHICH MEETS STABILITY CRITERION OF THE SINK & SOURCE TERM
 =  73.56    (WHEN MIN. R.F.=1)  AT K=   2, I=   1, J= 120

 MAXIMUM STEPSIZE WHICH MEETS STABILITY CRITERION OF THE DISPERSION TERM
 =  20.29    (WHEN MIN. R.F.=1)  AT K=   1, I=   1, J=  31


     1 CALLS TO GCG PACKAGE FOR TRANSPORT TIME STEP   1 IN FLOW TIME STEP  40 STRESS PERIOD   1
     6 TOTAL ITERATIONS

 NO OUTPUT CONTROL FOR STRESS PERIOD    1   TIME STEP  40
 
 SOLVING FOR HEAD 
 FLOW MODEL IS TRANSIENT
 FLOW MODEL CONTAINS CONSTANT-HEAD CELLS


 MAXIMUM STEPSIZE DURING WHICH ANY PARTICLE CANNOT MOVE MORE THAN ONE CELL
 =  4.719    (WHEN MIN. R.F.=1)  AT K=   4, I=   1, J=  81

 MAXIMUM STEPSIZE WHICH MEETS STABILITY CRITERION OF THE ADVECTION TERM
 (FOR PURE FINITE-DIFFERENCE OPTION, MIXELM=0) 
 =  3.428    (WHEN MIN. R.F.=1)  AT K=   2, I=   1, J=  81


 TOTAL NUMBER OF POINT SOURCES/SINKS PRESENT IN THE FLOW MODEL =    62

 MAXIMUM STEPSIZE WHICH MEETS STABILITY CRITERION OF THE SINK & SOURCE TERM
 =  70.12    (WHEN MIN. R.F.=1)  AT K=   2, I=   1, J= 120

 MAXIMUM STEPSIZE WHICH MEETS STABILITY CRITERION OF THE DISPERSION TERM
 =  20.29    (WHEN MIN. R.F.=1)  AT K=   1, I=   1, J=  31
     1 CALLS TO GCG PACKAGE FOR TRANSPORT TIME STEP   2 IN FLOW TIME STEP  40 STRESS PERIOD   1
     6 TOTAL ITERATIONS
 
 SOLVING FOR HEAD 
 FLOW MODEL IS TRANSIENT
 FLOW MODEL CONTAINS CONSTANT-HEAD CELLS


 MAXIMUM STEPSIZE DURING WHICH ANY PARTICLE CANNOT MOVE MORE THAN ONE CELL
 =  4.869    (WHEN MIN. R.F.=1)  AT K=   4, I=   1, J=  60

 MAXIMUM STEPSIZE WHICH MEETS STABILITY CRITERION OF THE ADVECTION TERM
 (FOR PURE FINITE-DIFFERENCE OPTION, MIXELM=0) 
 =  3.655    (WHEN MIN. R.F.=1)  AT K=   2, I=   1, J=  81


 TOTAL NUMBER OF POINT SOURCES/SINKS PRESENT IN THE FLOW MODEL =    62

 MAXIMUM STEPSIZE WHICH MEETS STABILITY CRITERION OF THE SINK & SOURCE TERM
 =  70.18    (WHEN MIN. R.F.=1)  AT K=   2, I=   1, J= 120

 MAXIMUM STEPSIZE WHICH MEETS STABILITY CRITERION OF THE DISPERSION TERM
 =  20.29    (WHEN MIN. R.F.=1)  AT K=   1, I=   1, J=  31
     1 CALLS TO GCG PACKAGE FOR TRANSPORT TIME STEP   3 IN FLOW TIME STEP  40 STRESS PERIOD   1
     6 TOTAL ITERATIONS
 
 SOLVING FOR HEAD 
 FLOW MODEL IS TRANSIENT
 FLOW MODEL CONTAINS CONSTANT-HEAD CELLS


 MAXIMUM STEPSIZE DURING WHICH ANY PARTICLE CANNOT MOVE MORE THAN ONE CELL
 =  4.858    (WHEN MIN. R.F.=1)  AT K=   4, I=   1, J=  60

 MAXIMUM STEPSIZE WHICH MEETS STABILITY CRITERION OF THE ADVECTION TERM
 (FOR PURE FINITE-DIFFERENCE OPTION, MIXELM=0) 
 =  3.802    (WHEN MIN. R.F.=1)  AT K=   2, I=   1, J=  60


 TOTAL NUMBER OF POINT SOURCES/SINKS PRESENT IN THE FLOW MODEL =    62

 MAXIMUM STEPSIZE WHICH MEETS STABILITY CRITERION OF THE SINK & SOURCE TERM
 =  69.81    (WHEN MIN. R.F.=1)  AT K=   2, I=   1, J= 120

 MAXIMUM STEPSIZE WHICH MEETS STABILITY CRITERION OF THE DISPERSION TERM
 =  20.29    (WHEN MIN. R.F.=1)  AT K=   1, I=   1, J=  31
     1 CALLS TO GCG PACKAGE FOR TRANSPORT TIME STEP   4 IN FLOW TIME STEP  40 STRESS PERIOD   1
     6 TOTAL ITERATIONS
  MAXIMUM CONCENTRATION CHANGES FOR EACH ITERATION:
  MAX. CHANGE LAYER,ROW,COL MAX. CHANGE LAYER,ROW,COL MAX. CHANGE LAYER,ROW,COL MAX. CHANGE LAYER,ROW,COL MAX. CHANGE LAYER,ROW,COL
 ------------------------------------------------------------------------------------------------------------------------------------
   0.4430E-01 (  2,  1, 62)  0.2096E-02 (  2,  1, 80)  0.9836E-04 (  3,  1, 80)  0.4570E-05 (  3,  1, 63)  0.3366E-06 (  3,  1, 44)
   0.1943E-07 (  4,  1, 44)


                                          ================================================
                                                         FROM TIME =   400.00     TO    410.00    

 
 SOLVING FOR HEAD 
 FLOW MODEL IS TRANSIENT
 FLOW MODEL CONTAINS CONSTANT-HEAD CELLS


 MAXIMUM STEPSIZE DURING WHICH ANY PARTICLE CANNOT MOVE MORE THAN ONE CELL
 =  4.849    (WHEN MIN. R.F.=1)  AT K=   4, I=   1, J=  60

 MAXIMUM STEPSIZE WHICH MEETS STABILITY CRITERION OF THE ADVECTION TERM
 (FOR PURE FINITE-DIFFERENCE OPTION, MIXELM=0) 
 =  3.595    (WHEN MIN. R.F.=1)  AT K=   2, I=   1, J=  41


 TOTAL NUMBER OF POINT SOURCES/SINKS PRESENT IN THE FLOW MODEL =    62

 MAXIMUM STEPSIZE WHICH MEETS STABILITY CRITERION OF THE SINK & SOURCE TERM
 =  70.07    (WHEN MIN. R.F.=1)  AT K=   2, I=   1, J= 120

 MAXIMUM STEPSIZE WHICH MEETS STABILITY CRITERION OF THE DISPERSION TERM
 =  20.29    (WHEN MIN. R.F.=1)  AT K=   1, I=   1, J=  31


     1 CALLS TO GCG PACKAGE FOR TRANSPORT TIME STEP   1 IN FLOW TIME STEP  41 STRESS PERIOD   1
     6 TOTAL ITERATIONS

 NO OUTPUT CONTROL FOR STRESS PERIOD    1   TIME STEP  41
 
 SOLVING FOR HEAD 
 FLOW MODEL IS TRANSIENT
 FLOW MODEL CONTAINS CONSTANT-HEAD CELLS


 MAXIMUM STEPSIZE DURING WHICH ANY PARTICLE CANNOT MOVE MORE THAN ONE CELL
 =  4.844    (WHEN MIN. R.F.=1)  AT K=   4, I=   1, J=  60

 MAXIMUM STEPSIZE WHICH MEETS STABILITY CRITERION OF THE ADVECTION TERM
 (FOR PURE FINITE-DIFFERENCE OPTION, MIXELM=0) 
 =  3.343    (WHEN MIN. R.F.=1)  AT K=   2, I=   1, J=  41


 TOTAL NUMBER OF POINT SOURCES/SINKS PRESENT IN THE FLOW MODEL =    62

 MAXIMUM STEPSIZE WHICH MEETS STABILITY CRITERION OF THE SINK & SOURCE TERM
 =  70.04    (WHEN MIN. R.F.=1)  AT K=   2, I=   1, J= 120

 MAXIMUM STEPSIZE WHICH MEETS STABILITY CRITERION OF THE DISPERSION TERM
 =  20.29    (WHEN MIN. R.F.=1)  AT K=   1, I=   1, J=  31
     1 CALLS TO GCG PACKAGE FOR TRANSPORT TIME STEP   2 IN FLOW TIME STEP  41 STRESS PERIOD   1
     6 TOTAL ITERATIONS
 
 SOLVING FOR HEAD 
 FLOW MODEL IS TRANSIENT
 FLOW MODEL CONTAINS CONSTANT-HEAD CELLS


 MAXIMUM STEPSIZE DURING WHICH ANY PARTICLE CANNOT MOVE MORE THAN ONE CELL
 =  4.759    (WHEN MIN. R.F.=1)  AT K=   3, I=   1, J=  41

 MAXIMUM STEPSIZE WHICH MEETS STABILITY CRITERION OF THE ADVECTION TERM
 (FOR PURE FINITE-DIFFERENCE OPTION, MIXELM=0) 
 =  3.226    (WHEN MIN. R.F.=1)  AT K=   2, I=   1, J=  41


 TOTAL NUMBER OF POINT SOURCES/SINKS PRESENT IN THE FLOW MODEL =    62

 MAXIMUM STEPSIZE WHICH MEETS STABILITY CRITERION OF THE SINK & SOURCE TERM
 =  71.25    (WHEN MIN. R.F.=1)  AT K=   2, I=   1, J= 120

 MAXIMUM STEPSIZE WHICH MEETS STABILITY CRITERION OF THE DISPERSION TERM
 =  20.29    (WHEN MIN. R.F.=1)  AT K=   1, I=   1, J=  31
     1 CALLS TO GCG PACKAGE FOR TRANSPORT TIME STEP   3 IN FLOW TIME STEP  41 STRESS PERIOD   1
     6 TOTAL ITERATIONS
 
 SOLVING FOR HEAD 
 FLOW MODEL IS TRANSIENT
 FLOW MODEL CONTAINS CONSTANT-HEAD CELLS


 MAXIMUM STEPSIZE DURING WHICH ANY PARTICLE CANNOT MOVE MORE THAN ONE CELL
 =  4.645    (WHEN MIN. R.F.=1)  AT K=   3, I=   1, J=  80

 MAXIMUM STEPSIZE WHICH MEETS STABILITY CRITERION OF THE ADVECTION TERM
 (FOR PURE FINITE-DIFFERENCE OPTION, MIXELM=0) 
 =  3.098    (WHEN MIN. R.F.=1)  AT K=   2, I=   1, J=  80


 TOTAL NUMBER OF POINT SOURCES/SINKS PRESENT IN THE FLOW MODEL =    62

 MAXIMUM STEPSIZE WHICH MEETS STABILITY CRITERION OF THE SINK & SOURCE TERM
 =  71.88    (WHEN MIN. R.F.=1)  AT K=   2, I=   1, J= 120

 MAXIMUM STEPSIZE WHICH MEETS STABILITY CRITERION OF THE DISPERSION TERM
 =  20.29    (WHEN MIN. R.F.=1)  AT K=   1, I=   1, J=  31
     1 CALLS TO GCG PACKAGE FOR TRANSPORT TIME STEP   4 IN FLOW TIME STEP  41 STRESS PERIOD   1
     5 TOTAL ITERATIONS
  MAXIMUM CONCENTRATION CHANGES FOR EACH ITERATION:
  MAX. CHANGE LAYER,ROW,COL MAX. CHANGE LAYER,ROW,COL MAX. CHANGE LAYER,ROW,COL MAX. CHANGE LAYER,ROW,COL MAX. CHANGE LAYER,ROW,COL
 ------------------------------------------------------------------------------------------------------------------------------------
   0.3222E-01 (  2,  1, 62)  0.1253E-02 (  2,  1, 80)  0.4538E-04 (  3,  1, 80)  0.1506E-05 (  3,  1, 63)  0.5944E-07 (  4,  1, 62)


                                          ================================================
                                                         FROM TIME =   410.00     TO    420.00    

 
 SOLVING FOR HEAD 
 FLOW MODEL IS TRANSIENT
 FLOW MODEL CONTAINS CONSTANT-HEAD CELLS


 MAXIMUM STEPSIZE DURING WHICH ANY PARTICLE CANNOT MOVE MORE THAN ONE CELL
 =  4.620    (WHEN MIN. R.F.=1)  AT K=   3, I=   1, J=  80

 MAXIMUM STEPSIZE WHICH MEETS STABILITY CRITERION OF THE ADVECTION TERM
 (FOR PURE FINITE-DIFFERENCE OPTION, MIXELM=0) 
 =  3.054    (WHEN MIN. R.F.=1)  AT K=   2, I=   1, J=  80


 TOTAL NUMBER OF POINT SOURCES/SINKS PRESENT IN THE FLOW MODEL =    62

 MAXIMUM STEPSIZE WHICH MEETS STABILITY CRITERION OF THE SINK & SOURCE TERM
 =  73.16    (WHEN MIN. R.F.=1)  AT K=   2, I=   1, J= 120

 MAXIMUM STEPSIZE WHICH MEETS STABILITY CRITERION OF THE DISPERSION TERM
 =  20.29    (WHEN MIN. R.F.=1)  AT K=   1, I=   1, J=  31


     1 CALLS TO GCG PACKAGE FOR TRANSPORT TIME STEP   1 IN FLOW TIME STEP  42 STRESS PERIOD   1
     6 TOTAL ITERATIONS

 NO OUTPUT CONTROL FOR STRESS PERIOD    1   TIME STEP  42
 
 SOLVING FOR HEAD 
 FLOW MODEL IS TRANSIENT
 FLOW MODEL CONTAINS CONSTANT-HEAD CELLS


 MAXIMUM STEPSIZE DURING WHICH ANY PARTICLE CANNOT MOVE MORE THAN ONE CELL
 =  4.692    (WHEN MIN. R.F.=1)  AT K=   3, I=   1, J=  80

 MAXIMUM STEPSIZE WHICH MEETS STABILITY CRITERION OF THE ADVECTION TERM
 (FOR PURE FINITE-DIFFERENCE OPTION, MIXELM=0) 
 =  3.050    (WHEN MIN. R.F.=1)  AT K=   2, I=   1, J=  80


 TOTAL NUMBER OF POINT SOURCES/SINKS PRESENT IN THE FLOW MODEL =    62

 MAXIMUM STEPSIZE WHICH MEETS STABILITY CRITERION OF THE SINK & SOURCE TERM
 =  71.71    (WHEN MIN. R.F.=1)  AT K=   2, I=   1, J= 120

 MAXIMUM STEPSIZE WHICH MEETS STABILITY CRITERION OF THE DISPERSION TERM
 =  20.29    (WHEN MIN. R.F.=1)  AT K=   1, I=   1, J=  31
     1 CALLS TO GCG PACKAGE FOR TRANSPORT TIME STEP   2 IN FLOW TIME STEP  42 STRESS PERIOD   1
     6 TOTAL ITERATIONS
 
 SOLVING FOR HEAD 
 FLOW MODEL IS TRANSIENT
 FLOW MODEL CONTAINS CONSTANT-HEAD CELLS


 MAXIMUM STEPSIZE DURING WHICH ANY PARTICLE CANNOT MOVE MORE THAN ONE CELL
 =  4.786    (WHEN MIN. R.F.=1)  AT K=   4, I=   1, J=  73

 MAXIMUM STEPSIZE WHICH MEETS STABILITY CRITERION OF THE ADVECTION TERM
 (FOR PURE FINITE-DIFFERENCE OPTION, MIXELM=0) 
 =  3.087    (WHEN MIN. R.F.=1)  AT K=   2, I=   1, J=  80


 TOTAL NUMBER OF POINT SOURCES/SINKS PRESENT IN THE FLOW MODEL =    62

 MAXIMUM STEPSIZE WHICH MEETS STABILITY CRITERION OF THE SINK & SOURCE TERM
 =  72.07    (WHEN MIN. R.F.=1)  AT K=   2, I=   1, J= 120

 MAXIMUM STEPSIZE WHICH MEETS STABILITY CRITERION OF THE DISPERSION TERM
 =  20.29    (WHEN MIN. R.F.=1)  AT K=   1, I=   1, J=  31
     1 CALLS TO GCG PACKAGE FOR TRANSPORT TIME STEP   3 IN FLOW TIME STEP  42 STRESS PERIOD   1
     6 TOTAL ITERATIONS
 
 SOLVING FOR HEAD 
 FLOW MODEL IS TRANSIENT
 FLOW MODEL CONTAINS CONSTANT-HEAD CELLS


 MAXIMUM STEPSIZE DURING WHICH ANY PARTICLE CANNOT MOVE MORE THAN ONE CELL
 =  4.712    (WHEN MIN. R.F.=1)  AT K=   4, I=   1, J=  73

 MAXIMUM STEPSIZE WHICH MEETS STABILITY CRITERION OF THE ADVECTION TERM
 (FOR PURE FINITE-DIFFERENCE OPTION, MIXELM=0) 
 =  3.192    (WHEN MIN. R.F.=1)  AT K=   2, I=   1, J=  80


 TOTAL NUMBER OF POINT SOURCES/SINKS PRESENT IN THE FLOW MODEL =    62

 MAXIMUM STEPSIZE WHICH MEETS STABILITY CRITERION OF THE SINK & SOURCE TERM
 =  72.42    (WHEN MIN. R.F.=1)  AT K=   2, I=   1, J= 120

 MAXIMUM STEPSIZE WHICH MEETS STABILITY CRITERION OF THE DISPERSION TERM
 =  20.29    (WHEN MIN. R.F.=1)  AT K=   1, I=   1, J=  31
     1 CALLS TO GCG PACKAGE FOR TRANSPORT TIME STEP   4 IN FLOW TIME STEP  42 STRESS PERIOD   1
     6 TOTAL ITERATIONS
 
 SOLVING FOR HEAD 
 FLOW MODEL IS TRANSIENT
 FLOW MODEL CONTAINS CONSTANT-HEAD CELLS


 MAXIMUM STEPSIZE DURING WHICH ANY PARTICLE CANNOT MOVE MORE THAN ONE CELL
 =  4.648    (WHEN MIN. R.F.=1)  AT K=   4, I=   1, J=  73

 MAXIMUM STEPSIZE WHICH MEETS STABILITY CRITERION OF THE ADVECTION TERM
 (FOR PURE FINITE-DIFFERENCE OPTION, MIXELM=0) 
 =  3.397    (WHEN MIN. R.F.=1)  AT K=   2, I=   1, J=  80


 TOTAL NUMBER OF POINT SOURCES/SINKS PRESENT IN THE FLOW MODEL =    62

 MAXIMUM STEPSIZE WHICH MEETS STABILITY CRITERION OF THE SINK & SOURCE TERM
 =  72.21    (WHEN MIN. R.F.=1)  AT K=   2, I=   1, J= 120

 MAXIMUM STEPSIZE WHICH MEETS STABILITY CRITERION OF THE DISPERSION TERM
 =  20.29    (WHEN MIN. R.F.=1)  AT K=   1, I=   1, J=  31
     1 CALLS TO GCG PACKAGE FOR TRANSPORT TIME STEP   5 IN FLOW TIME STEP  42 STRESS PERIOD   1
     4 TOTAL ITERATIONS
  MAXIMUM CONCENTRATION CHANGES FOR EACH ITERATION:
  MAX. CHANGE LAYER,ROW,COL MAX. CHANGE LAYER,ROW,COL MAX. CHANGE LAYER,ROW,COL MAX. CHANGE LAYER,ROW,COL MAX. CHANGE LAYER,ROW,COL
 ------------------------------------------------------------------------------------------------------------------------------------
   0.1287E-01 (  2,  1, 62)  0.1642E-03 (  2,  1, 62)  0.2561E-05 (  3,  1, 42)  0.4212E-07 (  3,  1, 63)


                                          ================================================
                                                         FROM TIME =   420.00     TO    430.00    

 
 SOLVING FOR HEAD 
 FLOW MODEL IS TRANSIENT
 FLOW MODEL CONTAINS CONSTANT-HEAD CELLS


 MAXIMUM STEPSIZE DURING WHICH ANY PARTICLE CANNOT MOVE MORE THAN ONE CELL
 =  4.625    (WHEN MIN. R.F.=1)  AT K=   4, I=   1, J=  73

 MAXIMUM STEPSIZE WHICH MEETS STABILITY CRITERION OF THE ADVECTION TERM
 (FOR PURE FINITE-DIFFERENCE OPTION, MIXELM=0) 
 =  3.443    (WHEN MIN. R.F.=1)  AT K=   2, I=   1, J=  80


 TOTAL NUMBER OF POINT SOURCES/SINKS PRESENT IN THE FLOW MODEL =    62

 MAXIMUM STEPSIZE WHICH MEETS STABILITY CRITERION OF THE SINK & SOURCE TERM
 =  76.07    (WHEN MIN. R.F.=1)  AT K=   2, I=   1, J= 120

 MAXIMUM STEPSIZE WHICH MEETS STABILITY CRITERION OF THE DISPERSION TERM
 =  20.29    (WHEN MIN. R.F.=1)  AT K=   1, I=   1, J=  31


     1 CALLS TO GCG PACKAGE FOR TRANSPORT TIME STEP   1 IN FLOW TIME STEP  43 STRESS PERIOD   1
     6 TOTAL ITERATIONS

 NO OUTPUT CONTROL FOR STRESS PERIOD    1   TIME STEP  43
 
 SOLVING FOR HEAD 
 FLOW MODEL IS TRANSIENT
 FLOW MODEL CONTAINS CONSTANT-HEAD CELLS


 MAXIMUM STEPSIZE DURING WHICH ANY PARTICLE CANNOT MOVE MORE THAN ONE CELL
 =  4.563    (WHEN MIN. R.F.=1)  AT K=   4, I=   1, J=  73

 MAXIMUM STEPSIZE WHICH MEETS STABILITY CRITERION OF THE ADVECTION TERM
 (FOR PURE FINITE-DIFFERENCE OPTION, MIXELM=0) 
 =  3.746    (WHEN MIN. R.F.=1)  AT K=   2, I=   1, J=  80


 TOTAL NUMBER OF POINT SOURCES/SINKS PRESENT IN THE FLOW MODEL =    62

 MAXIMUM STEPSIZE WHICH MEETS STABILITY CRITERION OF THE SINK & SOURCE TERM
 =  73.01    (WHEN MIN. R.F.=1)  AT K=   2, I=   1, J= 120

 MAXIMUM STEPSIZE WHICH MEETS STABILITY CRITERION OF THE DISPERSION TERM
 =  20.29    (WHEN MIN. R.F.=1)  AT K=   1, I=   1, J=  31
     1 CALLS TO GCG PACKAGE FOR TRANSPORT TIME STEP   2 IN FLOW TIME STEP  43 STRESS PERIOD   1
     6 TOTAL ITERATIONS
 
 SOLVING FOR HEAD 
 FLOW MODEL IS TRANSIENT
 FLOW MODEL CONTAINS CONSTANT-HEAD CELLS


 MAXIMUM STEPSIZE DURING WHICH ANY PARTICLE CANNOT MOVE MORE THAN ONE CELL
 =  4.513    (WHEN MIN. R.F.=1)  AT K=   4, I=   1, J=  73

 MAXIMUM STEPSIZE WHICH MEETS STABILITY CRITERION OF THE ADVECTION TERM
 (FOR PURE FINITE-DIFFERENCE OPTION, MIXELM=0) 
 =  3.748    (WHEN MIN. R.F.=1)  AT K=   2, I=   1, J=  73


 TOTAL NUMBER OF POINT SOURCES/SINKS PRESENT IN THE FLOW MODEL =    62

 MAXIMUM STEPSIZE WHICH MEETS STABILITY CRITERION OF THE SINK & SOURCE TERM
 =  74.25    (WHEN MIN. R.F.=1)  AT K=   2, I=   1, J= 120

 MAXIMUM STEPSIZE WHICH MEETS STABILITY CRITERION OF THE DISPERSION TERM
 =  20.29    (WHEN MIN. R.F.=1)  AT K=   1, I=   1, J=  31
     1 CALLS TO GCG PACKAGE FOR TRANSPORT TIME STEP   3 IN FLOW TIME STEP  43 STRESS PERIOD   1
     6 TOTAL ITERATIONS
 
 SOLVING FOR HEAD 
 FLOW MODEL IS TRANSIENT
 FLOW MODEL CONTAINS CONSTANT-HEAD CELLS


 MAXIMUM STEPSIZE DURING WHICH ANY PARTICLE CANNOT MOVE MORE THAN ONE CELL
 =  4.469    (WHEN MIN. R.F.=1)  AT K=   4, I=   1, J=  73

 MAXIMUM STEPSIZE WHICH MEETS STABILITY CRITERION OF THE ADVECTION TERM
 (FOR PURE FINITE-DIFFERENCE OPTION, MIXELM=0) 
 =  3.501    (WHEN MIN. R.F.=1)  AT K=   2, I=   1, J=  42


 TOTAL NUMBER OF POINT SOURCES/SINKS PRESENT IN THE FLOW MODEL =    62

 MAXIMUM STEPSIZE WHICH MEETS STABILITY CRITERION OF THE SINK & SOURCE TERM
 =  74.61    (WHEN MIN. R.F.=1)  AT K=   2, I=   1, J= 120

 MAXIMUM STEPSIZE WHICH MEETS STABILITY CRITERION OF THE DISPERSION TERM
 =  20.29    (WHEN MIN. R.F.=1)  AT K=   1, I=   1, J=  31
     1 CALLS TO GCG PACKAGE FOR TRANSPORT TIME STEP   4 IN FLOW TIME STEP  43 STRESS PERIOD   1
     5 TOTAL ITERATIONS
  MAXIMUM CONCENTRATION CHANGES FOR EACH ITERATION:
  MAX. CHANGE LAYER,ROW,COL MAX. CHANGE LAYER,ROW,COL MAX. CHANGE LAYER,ROW,COL MAX. CHANGE LAYER,ROW,COL MAX. CHANGE LAYER,ROW,COL
 ------------------------------------------------------------------------------------------------------------------------------------
   0.3393E-01 (  2,  1, 62)  0.1316E-02 (  2,  1, 79)  0.5026E-04 (  3,  1, 79)  0.1841E-05 (  3,  1, 63)  0.7481E-07 (  4,  1, 62)


                                          ================================================
                                                         FROM TIME =   430.00     TO    440.00    

 
 SOLVING FOR HEAD 
 FLOW MODEL IS TRANSIENT
 FLOW MODEL CONTAINS CONSTANT-HEAD CELLS


 MAXIMUM STEPSIZE DURING WHICH ANY PARTICLE CANNOT MOVE MORE THAN ONE CELL
 =  4.440    (WHEN MIN. R.F.=1)  AT K=   4, I=   1, J=  73

 MAXIMUM STEPSIZE WHICH MEETS STABILITY CRITERION OF THE ADVECTION TERM
 (FOR PURE FINITE-DIFFERENCE OPTION, MIXELM=0) 
 =  3.353    (WHEN MIN. R.F.=1)  AT K=   2, I=   1, J=  79


 TOTAL NUMBER OF POINT SOURCES/SINKS PRESENT IN THE FLOW MODEL =    62

 MAXIMUM STEPSIZE WHICH MEETS STABILITY CRITERION OF THE SINK & SOURCE TERM
 =  77.35    (WHEN MIN. R.F.=1)  AT K=   2, I=   1, J= 120

 MAXIMUM STEPSIZE WHICH MEETS STABILITY CRITERION OF THE DISPERSION TERM
 =  20.29    (WHEN MIN. R.F.=1)  AT K=   1, I=   1, J=  31


     1 CALLS TO GCG PACKAGE FOR TRANSPORT TIME STEP   1 IN FLOW TIME STEP  44 STRESS PERIOD   1
     6 TOTAL ITERATIONS

 NO OUTPUT CONTROL FOR STRESS PERIOD    1   TIME STEP  44
 
 SOLVING FOR HEAD 
 FLOW MODEL IS TRANSIENT
 FLOW MODEL CONTAINS CONSTANT-HEAD CELLS


 MAXIMUM STEPSIZE DURING WHICH ANY PARTICLE CANNOT MOVE MORE THAN ONE CELL
 =  4.411    (WHEN MIN. R.F.=1)  AT K=   4, I=   1, J=  73

 MAXIMUM STEPSIZE WHICH MEETS STABILITY CRITERION OF THE ADVECTION TERM
 (FOR PURE FINITE-DIFFERENCE OPTION, MIXELM=0) 
 =  3.221    (WHEN MIN. R.F.=1)  AT K=   2, I=   1, J=  79


 TOTAL NUMBER OF POINT SOURCES/SINKS PRESENT IN THE FLOW MODEL =    62

 MAXIMUM STEPSIZE WHICH MEETS STABILITY CRITERION OF THE SINK & SOURCE TERM
 =  76.40    (WHEN MIN. R.F.=1)  AT K=   2, I=   1, J= 120

 MAXIMUM STEPSIZE WHICH MEETS STABILITY CRITERION OF THE DISPERSION TERM
 =  20.29    (WHEN MIN. R.F.=1)  AT K=   1, I=   1, J=  31
     1 CALLS TO GCG PACKAGE FOR TRANSPORT TIME STEP   2 IN FLOW TIME STEP  44 STRESS PERIOD   1
     6 TOTAL ITERATIONS
 
 SOLVING FOR HEAD 
 FLOW MODEL IS TRANSIENT
 FLOW MODEL CONTAINS CONSTANT-HEAD CELLS


 MAXIMUM STEPSIZE DURING WHICH ANY PARTICLE CANNOT MOVE MORE THAN ONE CELL
 =  4.389    (WHEN MIN. R.F.=1)  AT K=   4, I=   1, J=  73

 MAXIMUM STEPSIZE WHICH MEETS STABILITY CRITERION OF THE ADVECTION TERM
 (FOR PURE FINITE-DIFFERENCE OPTION, MIXELM=0) 
 =  3.186    (WHEN MIN. R.F.=1)  AT K=   2, I=   1, J=  79


 TOTAL NUMBER OF POINT SOURCES/SINKS PRESENT IN THE FLOW MODEL =    62

 MAXIMUM STEPSIZE WHICH MEETS STABILITY CRITERION OF THE SINK & SOURCE TERM
 =  77.20    (WHEN MIN. R.F.=1)  AT K=   2, I=   1, J= 120

 MAXIMUM STEPSIZE WHICH MEETS STABILITY CRITERION OF THE DISPERSION TERM
 =  20.29    (WHEN MIN. R.F.=1)  AT K=   1, I=   1, J=  31
     1 CALLS TO GCG PACKAGE FOR TRANSPORT TIME STEP   3 IN FLOW TIME STEP  44 STRESS PERIOD   1
     6 TOTAL ITERATIONS
 
 SOLVING FOR HEAD 
 FLOW MODEL IS TRANSIENT
 FLOW MODEL CONTAINS CONSTANT-HEAD CELLS


 MAXIMUM STEPSIZE DURING WHICH ANY PARTICLE CANNOT MOVE MORE THAN ONE CELL
 =  4.377    (WHEN MIN. R.F.=1)  AT K=   4, I=   1, J=  73

 MAXIMUM STEPSIZE WHICH MEETS STABILITY CRITERION OF THE ADVECTION TERM
 (FOR PURE FINITE-DIFFERENCE OPTION, MIXELM=0) 
 =  3.227    (WHEN MIN. R.F.=1)  AT K=   2, I=   1, J=  79


 TOTAL NUMBER OF POINT SOURCES/SINKS PRESENT IN THE FLOW MODEL =    62

 MAXIMUM STEPSIZE WHICH MEETS STABILITY CRITERION OF THE SINK & SOURCE TERM
 =  77.92    (WHEN MIN. R.F.=1)  AT K=   2, I=   1, J= 120

 MAXIMUM STEPSIZE WHICH MEETS STABILITY CRITERION OF THE DISPERSION TERM
 =  20.29    (WHEN MIN. R.F.=1)  AT K=   1, I=   1, J=  31
     1 CALLS TO GCG PACKAGE FOR TRANSPORT TIME STEP   4 IN FLOW TIME STEP  44 STRESS PERIOD   1
     6 TOTAL ITERATIONS
 
 SOLVING FOR HEAD 
 FLOW MODEL IS TRANSIENT
 FLOW MODEL CONTAINS CONSTANT-HEAD CELLS


 MAXIMUM STEPSIZE DURING WHICH ANY PARTICLE CANNOT MOVE MORE THAN ONE CELL
 =  4.376    (WHEN MIN. R.F.=1)  AT K=   4, I=   1, J=  73

 MAXIMUM STEPSIZE WHICH MEETS STABILITY CRITERION OF THE ADVECTION TERM
 (FOR PURE FINITE-DIFFERENCE OPTION, MIXELM=0) 
 =  3.390    (WHEN MIN. R.F.=1)  AT K=   2, I=   1, J=  79


 TOTAL NUMBER OF POINT SOURCES/SINKS PRESENT IN THE FLOW MODEL =    62

 MAXIMUM STEPSIZE WHICH MEETS STABILITY CRITERION OF THE SINK & SOURCE TERM
 =  77.56    (WHEN MIN. R.F.=1)  AT K=   2, I=   1, J= 120

 MAXIMUM STEPSIZE WHICH MEETS STABILITY CRITERION OF THE DISPERSION TERM
 =  20.29    (WHEN MIN. R.F.=1)  AT K=   1, I=   1, J=  31
     1 CALLS TO GCG PACKAGE FOR TRANSPORT TIME STEP   5 IN FLOW TIME STEP  44 STRESS PERIOD   1
     3 TOTAL ITERATIONS
  MAXIMUM CONCENTRATION CHANGES FOR EACH ITERATION:
  MAX. CHANGE LAYER,ROW,COL MAX. CHANGE LAYER,ROW,COL MAX. CHANGE LAYER,ROW,COL MAX. CHANGE LAYER,ROW,COL MAX. CHANGE LAYER,ROW,COL
 ------------------------------------------------------------------------------------------------------------------------------------
   0.8738E-03 (  2,  1, 62)  0.7969E-06 (  2,  1, 62)  0.9596E-09 (  3,  1, 78)


                                          ================================================
                                                         FROM TIME =   440.00     TO    450.00    

 
 SOLVING FOR HEAD 
 FLOW MODEL IS TRANSIENT
 FLOW MODEL CONTAINS CONSTANT-HEAD CELLS


 MAXIMUM STEPSIZE DURING WHICH ANY PARTICLE CANNOT MOVE MORE THAN ONE CELL
 =  4.376    (WHEN MIN. R.F.=1)  AT K=   4, I=   1, J=  73

 MAXIMUM STEPSIZE WHICH MEETS STABILITY CRITERION OF THE ADVECTION TERM
 (FOR PURE FINITE-DIFFERENCE OPTION, MIXELM=0) 
 =  3.391    (WHEN MIN. R.F.=1)  AT K=   2, I=   1, J=  79


 TOTAL NUMBER OF POINT SOURCES/SINKS PRESENT IN THE FLOW MODEL =    62

 MAXIMUM STEPSIZE WHICH MEETS STABILITY CRITERION OF THE SINK & SOURCE TERM
 =  81.41    (WHEN MIN. R.F.=1)  AT K=   2, I=   1, J= 120

 MAXIMUM STEPSIZE WHICH MEETS STABILITY CRITERION OF THE DISPERSION TERM
 =  20.29    (WHEN MIN. R.F.=1)  AT K=   1, I=   1, J=  31


     1 CALLS TO GCG PACKAGE FOR TRANSPORT TIME STEP   1 IN FLOW TIME STEP  45 STRESS PERIOD   1
     6 TOTAL ITERATIONS

 NO OUTPUT CONTROL FOR STRESS PERIOD    1   TIME STEP  45
 
 SOLVING FOR HEAD 
 FLOW MODEL IS TRANSIENT
 FLOW MODEL CONTAINS CONSTANT-HEAD CELLS


 MAXIMUM STEPSIZE DURING WHICH ANY PARTICLE CANNOT MOVE MORE THAN ONE CELL
 =  4.384    (WHEN MIN. R.F.=1)  AT K=   4, I=   1, J=  73

 MAXIMUM STEPSIZE WHICH MEETS STABILITY CRITERION OF THE ADVECTION TERM
 (FOR PURE FINITE-DIFFERENCE OPTION, MIXELM=0) 
 =  3.661    (WHEN MIN. R.F.=1)  AT K=   2, I=   1, J=  79


 TOTAL NUMBER OF POINT SOURCES/SINKS PRESENT IN THE FLOW MODEL =    62

 MAXIMUM STEPSIZE WHICH MEETS STABILITY CRITERION OF THE SINK & SOURCE TERM
 =  79.38    (WHEN MIN. R.F.=1)  AT K=   2, I=   1, J= 120

 MAXIMUM STEPSIZE WHICH MEETS STABILITY CRITERION OF THE DISPERSION TERM
 =  20.29    (WHEN MIN. R.F.=1)  AT K=   1, I=   1, J=  31
     1 CALLS TO GCG PACKAGE FOR TRANSPORT TIME STEP   2 IN FLOW TIME STEP  45 STRESS PERIOD   1
     6 TOTAL ITERATIONS
 
 SOLVING FOR HEAD 
 FLOW MODEL IS TRANSIENT
 FLOW MODEL CONTAINS CONSTANT-HEAD CELLS


 MAXIMUM STEPSIZE DURING WHICH ANY PARTICLE CANNOT MOVE MORE THAN ONE CELL
 =  4.403    (WHEN MIN. R.F.=1)  AT K=   4, I=   1, J=  73

 MAXIMUM STEPSIZE WHICH MEETS STABILITY CRITERION OF THE ADVECTION TERM
 (FOR PURE FINITE-DIFFERENCE OPTION, MIXELM=0) 
 =  3.776    (WHEN MIN. R.F.=1)  AT K=   2, I=   1, J=  43


 TOTAL NUMBER OF POINT SOURCES/SINKS PRESENT IN THE FLOW MODEL =    62

 MAXIMUM STEPSIZE WHICH MEETS STABILITY CRITERION OF THE SINK & SOURCE TERM
 =  80.18    (WHEN MIN. R.F.=1)  AT K=   2, I=   1, J= 120

 MAXIMUM STEPSIZE WHICH MEETS STABILITY CRITERION OF THE DISPERSION TERM
 =  20.29    (WHEN MIN. R.F.=1)  AT K=   1, I=   1, J=  31
     1 CALLS TO GCG PACKAGE FOR TRANSPORT TIME STEP   3 IN FLOW TIME STEP  45 STRESS PERIOD   1
     6 TOTAL ITERATIONS
 
 SOLVING FOR HEAD 
 FLOW MODEL IS TRANSIENT
 FLOW MODEL CONTAINS CONSTANT-HEAD CELLS


 MAXIMUM STEPSIZE DURING WHICH ANY PARTICLE CANNOT MOVE MORE THAN ONE CELL
 =  4.437    (WHEN MIN. R.F.=1)  AT K=   4, I=   1, J=  73

 MAXIMUM STEPSIZE WHICH MEETS STABILITY CRITERION OF THE ADVECTION TERM
 (FOR PURE FINITE-DIFFERENCE OPTION, MIXELM=0) 
 =  3.470    (WHEN MIN. R.F.=1)  AT K=   2, I=   1, J=  78


 TOTAL NUMBER OF POINT SOURCES/SINKS PRESENT IN THE FLOW MODEL =    62

 MAXIMUM STEPSIZE WHICH MEETS STABILITY CRITERION OF THE SINK & SOURCE TERM
 =  80.39    (WHEN MIN. R.F.=1)  AT K=   2, I=   1, J= 120

 MAXIMUM STEPSIZE WHICH MEETS STABILITY CRITERION OF THE DISPERSION TERM
 =  20.29    (WHEN MIN. R.F.=1)  AT K=   1, I=   1, J=  31
     1 CALLS TO GCG PACKAGE FOR TRANSPORT TIME STEP   4 IN FLOW TIME STEP  45 STRESS PERIOD   1
     5 TOTAL ITERATIONS
  MAXIMUM CONCENTRATION CHANGES FOR EACH ITERATION:
  MAX. CHANGE LAYER,ROW,COL MAX. CHANGE LAYER,ROW,COL MAX. CHANGE LAYER,ROW,COL MAX. CHANGE LAYER,ROW,COL MAX. CHANGE LAYER,ROW,COL
 ------------------------------------------------------------------------------------------------------------------------------------
   0.3583E-01 (  2,  1, 62)  0.1360E-02 (  2,  1, 78)  0.5447E-04 (  3,  1, 78)  0.2664E-05 (  3,  1, 75)  0.9019E-07 (  3,  1, 64)


                                          ================================================
                                                         FROM TIME =   450.00     TO    460.00    

 
 SOLVING FOR HEAD 
 FLOW MODEL IS TRANSIENT
 FLOW MODEL CONTAINS CONSTANT-HEAD CELLS


 MAXIMUM STEPSIZE DURING WHICH ANY PARTICLE CANNOT MOVE MORE THAN ONE CELL
 =  4.477    (WHEN MIN. R.F.=1)  AT K=   4, I=   1, J=  73

 MAXIMUM STEPSIZE WHICH MEETS STABILITY CRITERION OF THE ADVECTION TERM
 (FOR PURE FINITE-DIFFERENCE OPTION, MIXELM=0) 
 =  3.316    (WHEN MIN. R.F.=1)  AT K=   2, I=   1, J=  78


 TOTAL NUMBER OF POINT SOURCES/SINKS PRESENT IN THE FLOW MODEL =    62

 MAXIMUM STEPSIZE WHICH MEETS STABILITY CRITERION OF THE SINK & SOURCE TERM
 =  82.24    (WHEN MIN. R.F.=1)  AT K=   2, I=   1, J= 120

 MAXIMUM STEPSIZE WHICH MEETS STABILITY CRITERION OF THE DISPERSION TERM
 =  20.29    (WHEN MIN. R.F.=1)  AT K=   1, I=   1, J=  31


     1 CALLS TO GCG PACKAGE FOR TRANSPORT TIME STEP   1 IN FLOW TIME STEP  46 STRESS PERIOD   1
     6 TOTAL ITERATIONS

 NO OUTPUT CONTROL FOR STRESS PERIOD    1   TIME STEP  46
 
 SOLVING FOR HEAD 
 FLOW MODEL IS TRANSIENT
 FLOW MODEL CONTAINS CONSTANT-HEAD CELLS


 MAXIMUM STEPSIZE DURING WHICH ANY PARTICLE CANNOT MOVE MORE THAN ONE CELL
 =  4.533    (WHEN MIN. R.F.=1)  AT K=   4, I=   1, J=  73

 MAXIMUM STEPSIZE WHICH MEETS STABILITY CRITERION OF THE ADVECTION TERM
 (FOR PURE FINITE-DIFFERENCE OPTION, MIXELM=0) 
 =  3.237    (WHEN MIN. R.F.=1)  AT K=   2, I=   1, J=  78


 TOTAL NUMBER OF POINT SOURCES/SINKS PRESENT IN THE FLOW MODEL =    62

 MAXIMUM STEPSIZE WHICH MEETS STABILITY CRITERION OF THE SINK & SOURCE TERM
 =  81.98    (WHEN MIN. R.F.=1)  AT K=   2, I=   1, J= 120

 MAXIMUM STEPSIZE WHICH MEETS STABILITY CRITERION OF THE DISPERSION TERM
 =  20.29    (WHEN MIN. R.F.=1)  AT K=   1, I=   1, J=  31
     1 CALLS TO GCG PACKAGE FOR TRANSPORT TIME STEP   2 IN FLOW TIME STEP  46 STRESS PERIOD   1
     6 TOTAL ITERATIONS
 
 SOLVING FOR HEAD 
 FLOW MODEL IS TRANSIENT
 FLOW MODEL CONTAINS CONSTANT-HEAD CELLS


 MAXIMUM STEPSIZE DURING WHICH ANY PARTICLE CANNOT MOVE MORE THAN ONE CELL
 =  4.598    (WHEN MIN. R.F.=1)  AT K=   4, I=   1, J=  73

 MAXIMUM STEPSIZE WHICH MEETS STABILITY CRITERION OF THE ADVECTION TERM
 (FOR PURE FINITE-DIFFERENCE OPTION, MIXELM=0) 
 =  3.247    (WHEN MIN. R.F.=1)  AT K=   2, I=   1, J=  78


 TOTAL NUMBER OF POINT SOURCES/SINKS PRESENT IN THE FLOW MODEL =    62

 MAXIMUM STEPSIZE WHICH MEETS STABILITY CRITERION OF THE SINK & SOURCE TERM
 =  82.97    (WHEN MIN. R.F.=1)  AT K=   2, I=   1, J= 120

 MAXIMUM STEPSIZE WHICH MEETS STABILITY CRITERION OF THE DISPERSION TERM
 =  20.29    (WHEN MIN. R.F.=1)  AT K=   1, I=   1, J=  31
     1 CALLS TO GCG PACKAGE FOR TRANSPORT TIME STEP   3 IN FLOW TIME STEP  46 STRESS PERIOD   1
     6 TOTAL ITERATIONS
 
 SOLVING FOR HEAD 
 FLOW MODEL IS TRANSIENT
 FLOW MODEL CONTAINS CONSTANT-HEAD CELLS


 MAXIMUM STEPSIZE DURING WHICH ANY PARTICLE CANNOT MOVE MORE THAN ONE CELL
 =  4.669    (WHEN MIN. R.F.=1)  AT K=   4, I=   1, J=  73

 MAXIMUM STEPSIZE WHICH MEETS STABILITY CRITERION OF THE ADVECTION TERM
 (FOR PURE FINITE-DIFFERENCE OPTION, MIXELM=0) 
 =  3.380    (WHEN MIN. R.F.=1)  AT K=   2, I=   1, J=  78


 TOTAL NUMBER OF POINT SOURCES/SINKS PRESENT IN THE FLOW MODEL =    62

 MAXIMUM STEPSIZE WHICH MEETS STABILITY CRITERION OF THE SINK & SOURCE TERM
 =  83.07    (WHEN MIN. R.F.=1)  AT K=   2, I=   1, J= 120

 MAXIMUM STEPSIZE WHICH MEETS STABILITY CRITERION OF THE DISPERSION TERM
 =  20.29    (WHEN MIN. R.F.=1)  AT K=   1, I=   1, J=  31
     1 CALLS TO GCG PACKAGE FOR TRANSPORT TIME STEP   4 IN FLOW TIME STEP  46 STRESS PERIOD   1
     6 TOTAL ITERATIONS
 
 SOLVING FOR HEAD 
 FLOW MODEL IS TRANSIENT
 FLOW MODEL CONTAINS CONSTANT-HEAD CELLS


 MAXIMUM STEPSIZE DURING WHICH ANY PARTICLE CANNOT MOVE MORE THAN ONE CELL
 =  4.690    (WHEN MIN. R.F.=1)  AT K=   4, I=   1, J=  60

 MAXIMUM STEPSIZE WHICH MEETS STABILITY CRITERION OF THE ADVECTION TERM
 (FOR PURE FINITE-DIFFERENCE OPTION, MIXELM=0) 
 =  3.629    (WHEN MIN. R.F.=1)  AT K=   2, I=   1, J=  78


 TOTAL NUMBER OF POINT SOURCES/SINKS PRESENT IN THE FLOW MODEL =    62

 MAXIMUM STEPSIZE WHICH MEETS STABILITY CRITERION OF THE SINK & SOURCE TERM
 =  82.64    (WHEN MIN. R.F.=1)  AT K=   2, I=   1, J= 120

 MAXIMUM STEPSIZE WHICH MEETS STABILITY CRITERION OF THE DISPERSION TERM
 =  20.29    (WHEN MIN. R.F.=1)  AT K=   1, I=   1, J=  31
     1 CALLS TO GCG PACKAGE FOR TRANSPORT TIME STEP   5 IN FLOW TIME STEP  46 STRESS PERIOD   1
     3 TOTAL ITERATIONS
  MAXIMUM CONCENTRATION CHANGES FOR EACH ITERATION:
  MAX. CHANGE LAYER,ROW,COL MAX. CHANGE LAYER,ROW,COL MAX. CHANGE LAYER,ROW,COL MAX. CHANGE LAYER,ROW,COL MAX. CHANGE LAYER,ROW,COL
 ------------------------------------------------------------------------------------------------------------------------------------
   0.7633E-03 (  2,  1, 62)  0.6044E-06 (  2,  1, 62)  0.6697E-09 (  3,  1, 77)


                                          ================================================
                                                         FROM TIME =   460.00     TO    470.00    

 
 SOLVING FOR HEAD 
 FLOW MODEL IS TRANSIENT
 FLOW MODEL CONTAINS CONSTANT-HEAD CELLS


 MAXIMUM STEPSIZE DURING WHICH ANY PARTICLE CANNOT MOVE MORE THAN ONE CELL
 =  4.690    (WHEN MIN. R.F.=1)  AT K=   4, I=   1, J=  60

 MAXIMUM STEPSIZE WHICH MEETS STABILITY CRITERION OF THE ADVECTION TERM
 (FOR PURE FINITE-DIFFERENCE OPTION, MIXELM=0) 
 =  3.629    (WHEN MIN. R.F.=1)  AT K=   2, I=   1, J=  78


 TOTAL NUMBER OF POINT SOURCES/SINKS PRESENT IN THE FLOW MODEL =    62

 MAXIMUM STEPSIZE WHICH MEETS STABILITY CRITERION OF THE SINK & SOURCE TERM
 =  86.95    (WHEN MIN. R.F.=1)  AT K=   2, I=   1, J= 120

 MAXIMUM STEPSIZE WHICH MEETS STABILITY CRITERION OF THE DISPERSION TERM
 =  20.29    (WHEN MIN. R.F.=1)  AT K=   1, I=   1, J=  31


     1 CALLS TO GCG PACKAGE FOR TRANSPORT TIME STEP   1 IN FLOW TIME STEP  47 STRESS PERIOD   1
     6 TOTAL ITERATIONS

 NO OUTPUT CONTROL FOR STRESS PERIOD    1   TIME STEP  47
 
 SOLVING FOR HEAD 
 FLOW MODEL IS TRANSIENT
 FLOW MODEL CONTAINS CONSTANT-HEAD CELLS


 MAXIMUM STEPSIZE DURING WHICH ANY PARTICLE CANNOT MOVE MORE THAN ONE CELL
 =  4.677    (WHEN MIN. R.F.=1)  AT K=   4, I=   1, J=  60

 MAXIMUM STEPSIZE WHICH MEETS STABILITY CRITERION OF THE ADVECTION TERM
 (FOR PURE FINITE-DIFFERENCE OPTION, MIXELM=0) 
 =  3.740    (WHEN MIN. R.F.=1)  AT K=   2, I=   1, J=  44


 TOTAL NUMBER OF POINT SOURCES/SINKS PRESENT IN THE FLOW MODEL =    62

 MAXIMUM STEPSIZE WHICH MEETS STABILITY CRITERION OF THE SINK & SOURCE TERM
 =  85.05    (WHEN MIN. R.F.=1)  AT K=   2, I=   1, J= 120

 MAXIMUM STEPSIZE WHICH MEETS STABILITY CRITERION OF THE DISPERSION TERM
 =  20.29    (WHEN MIN. R.F.=1)  AT K=   1, I=   1, J=  31
     1 CALLS TO GCG PACKAGE FOR TRANSPORT TIME STEP   2 IN FLOW TIME STEP  47 STRESS PERIOD   1
     6 TOTAL ITERATIONS
 
 SOLVING FOR HEAD 
 FLOW MODEL IS TRANSIENT
 FLOW MODEL CONTAINS CONSTANT-HEAD CELLS


 MAXIMUM STEPSIZE DURING WHICH ANY PARTICLE CANNOT MOVE MORE THAN ONE CELL
 =  4.662    (WHEN MIN. R.F.=1)  AT K=   4, I=   1, J=  60

 MAXIMUM STEPSIZE WHICH MEETS STABILITY CRITERION OF THE ADVECTION TERM
 (FOR PURE FINITE-DIFFERENCE OPTION, MIXELM=0) 
 =  3.517    (WHEN MIN. R.F.=1)  AT K=   2, I=   1, J=  44


 TOTAL NUMBER OF POINT SOURCES/SINKS PRESENT IN THE FLOW MODEL =    62

 MAXIMUM STEPSIZE WHICH MEETS STABILITY CRITERION OF THE SINK & SOURCE TERM
 =  85.46    (WHEN MIN. R.F.=1)  AT K=   2, I=   1, J= 120

 MAXIMUM STEPSIZE WHICH MEETS STABILITY CRITERION OF THE DISPERSION TERM
 =  20.29    (WHEN MIN. R.F.=1)  AT K=   1, I=   1, J=  31
     1 CALLS TO GCG PACKAGE FOR TRANSPORT TIME STEP   3 IN FLOW TIME STEP  47 STRESS PERIOD   1
     6 TOTAL ITERATIONS
 
 SOLVING FOR HEAD 
 FLOW MODEL IS TRANSIENT
 FLOW MODEL CONTAINS CONSTANT-HEAD CELLS


 MAXIMUM STEPSIZE DURING WHICH ANY PARTICLE CANNOT MOVE MORE THAN ONE CELL
 =  4.647    (WHEN MIN. R.F.=1)  AT K=   4, I=   1, J=  60

 MAXIMUM STEPSIZE WHICH MEETS STABILITY CRITERION OF THE ADVECTION TERM
 (FOR PURE FINITE-DIFFERENCE OPTION, MIXELM=0) 
 =  3.331    (WHEN MIN. R.F.=1)  AT K=   2, I=   1, J=  77


 TOTAL NUMBER OF POINT SOURCES/SINKS PRESENT IN THE FLOW MODEL =    62

 MAXIMUM STEPSIZE WHICH MEETS STABILITY CRITERION OF THE SINK & SOURCE TERM
 =  85.76    (WHEN MIN. R.F.=1)  AT K=   2, I=   1, J= 120

 MAXIMUM STEPSIZE WHICH MEETS STABILITY CRITERION OF THE DISPERSION TERM
 =  20.29    (WHEN MIN. R.F.=1)  AT K=   1, I=   1, J=  31
     1 CALLS TO GCG PACKAGE FOR TRANSPORT TIME STEP   4 IN FLOW TIME STEP  47 STRESS PERIOD   1
     5 TOTAL ITERATIONS
  MAXIMUM CONCENTRATION CHANGES FOR EACH ITERATION:
  MAX. CHANGE LAYER,ROW,COL MAX. CHANGE LAYER,ROW,COL MAX. CHANGE LAYER,ROW,COL MAX. CHANGE LAYER,ROW,COL MAX. CHANGE LAYER,ROW,COL
 ------------------------------------------------------------------------------------------------------------------------------------
   0.2864E-01 (  2,  1, 62)  0.8124E-03 (  2,  1, 77)  0.2612E-04 (  3,  1, 77)  0.1043E-05 (  3,  1, 63)  0.4039E-07 (  3,  1, 76)


                                          ================================================
                                                         FROM TIME =   470.00     TO    480.00    

 
 SOLVING FOR HEAD 
 FLOW MODEL IS TRANSIENT
 FLOW MODEL CONTAINS CONSTANT-HEAD CELLS


 MAXIMUM STEPSIZE DURING WHICH ANY PARTICLE CANNOT MOVE MORE THAN ONE CELL
 =  4.643    (WHEN MIN. R.F.=1)  AT K=   4, I=   1, J=  60

 MAXIMUM STEPSIZE WHICH MEETS STABILITY CRITERION OF THE ADVECTION TERM
 (FOR PURE FINITE-DIFFERENCE OPTION, MIXELM=0) 
 =  3.282    (WHEN MIN. R.F.=1)  AT K=   2, I=   1, J=  77


 TOTAL NUMBER OF POINT SOURCES/SINKS PRESENT IN THE FLOW MODEL =    62

 MAXIMUM STEPSIZE WHICH MEETS STABILITY CRITERION OF THE SINK & SOURCE TERM
 =  88.28    (WHEN MIN. R.F.=1)  AT K=   2, I=   1, J= 120

 MAXIMUM STEPSIZE WHICH MEETS STABILITY CRITERION OF THE DISPERSION TERM
 =  20.29    (WHEN MIN. R.F.=1)  AT K=   1, I=   1, J=  31


     1 CALLS TO GCG PACKAGE FOR TRANSPORT TIME STEP   1 IN FLOW TIME STEP  48 STRESS PERIOD   1
     6 TOTAL ITERATIONS

 NO OUTPUT CONTROL FOR STRESS PERIOD    1   TIME STEP  48
 
 SOLVING FOR HEAD 
 FLOW MODEL IS TRANSIENT
 FLOW MODEL CONTAINS CONSTANT-HEAD CELLS


 MAXIMUM STEPSIZE DURING WHICH ANY PARTICLE CANNOT MOVE MORE THAN ONE CELL
 =  4.634    (WHEN MIN. R.F.=1)  AT K=   4, I=   1, J=  60

 MAXIMUM STEPSIZE WHICH MEETS STABILITY CRITERION OF THE ADVECTION TERM
 (FOR PURE FINITE-DIFFERENCE OPTION, MIXELM=0) 
 =  3.281    (WHEN MIN. R.F.=1)  AT K=   2, I=   1, J=  77


 TOTAL NUMBER OF POINT SOURCES/SINKS PRESENT IN THE FLOW MODEL =    62

 MAXIMUM STEPSIZE WHICH MEETS STABILITY CRITERION OF THE SINK & SOURCE TERM
 =  87.80    (WHEN MIN. R.F.=1)  AT K=   2, I=   1, J= 120

 MAXIMUM STEPSIZE WHICH MEETS STABILITY CRITERION OF THE DISPERSION TERM
 =  20.29    (WHEN MIN. R.F.=1)  AT K=   1, I=   1, J=  31
     1 CALLS TO GCG PACKAGE FOR TRANSPORT TIME STEP   2 IN FLOW TIME STEP  48 STRESS PERIOD   1
     6 TOTAL ITERATIONS
 
 SOLVING FOR HEAD 
 FLOW MODEL IS TRANSIENT
 FLOW MODEL CONTAINS CONSTANT-HEAD CELLS


 MAXIMUM STEPSIZE DURING WHICH ANY PARTICLE CANNOT MOVE MORE THAN ONE CELL
 =  4.623    (WHEN MIN. R.F.=1)  AT K=   4, I=   1, J=  60

 MAXIMUM STEPSIZE WHICH MEETS STABILITY CRITERION OF THE ADVECTION TERM
 (FOR PURE FINITE-DIFFERENCE OPTION, MIXELM=0) 
 =  3.380    (WHEN MIN. R.F.=1)  AT K=   2, I=   1, J=  77


 TOTAL NUMBER OF POINT SOURCES/SINKS PRESENT IN THE FLOW MODEL =    62

 MAXIMUM STEPSIZE WHICH MEETS STABILITY CRITERION OF THE SINK & SOURCE TERM
 =  88.12    (WHEN MIN. R.F.=1)  AT K=   2, I=   1, J= 120

 MAXIMUM STEPSIZE WHICH MEETS STABILITY CRITERION OF THE DISPERSION TERM
 =  20.29    (WHEN MIN. R.F.=1)  AT K=   1, I=   1, J=  31
     1 CALLS TO GCG PACKAGE FOR TRANSPORT TIME STEP   3 IN FLOW TIME STEP  48 STRESS PERIOD   1
     6 TOTAL ITERATIONS
 
 SOLVING FOR HEAD 
 FLOW MODEL IS TRANSIENT
 FLOW MODEL CONTAINS CONSTANT-HEAD CELLS


 MAXIMUM STEPSIZE DURING WHICH ANY PARTICLE CANNOT MOVE MORE THAN ONE CELL
 =  4.611    (WHEN MIN. R.F.=1)  AT K=   4, I=   1, J=  60

 MAXIMUM STEPSIZE WHICH MEETS STABILITY CRITERION OF THE ADVECTION TERM
 (FOR PURE FINITE-DIFFERENCE OPTION, MIXELM=0) 
 =  3.601    (WHEN MIN. R.F.=1)  AT K=   2, I=   1, J=  77


 TOTAL NUMBER OF POINT SOURCES/SINKS PRESENT IN THE FLOW MODEL =    62

 MAXIMUM STEPSIZE WHICH MEETS STABILITY CRITERION OF THE SINK & SOURCE TERM
 =  88.26    (WHEN MIN. R.F.=1)  AT K=   2, I=   1, J= 120

 MAXIMUM STEPSIZE WHICH MEETS STABILITY CRITERION OF THE DISPERSION TERM
 =  20.29    (WHEN MIN. R.F.=1)  AT K=   1, I=   1, J=  31
     1 CALLS TO GCG PACKAGE FOR TRANSPORT TIME STEP   4 IN FLOW TIME STEP  48 STRESS PERIOD   1
     6 TOTAL ITERATIONS
 
 SOLVING FOR HEAD 
 FLOW MODEL IS TRANSIENT
 FLOW MODEL CONTAINS CONSTANT-HEAD CELLS


 MAXIMUM STEPSIZE DURING WHICH ANY PARTICLE CANNOT MOVE MORE THAN ONE CELL
 =  4.598    (WHEN MIN. R.F.=1)  AT K=   4, I=   1, J=  60

 MAXIMUM STEPSIZE WHICH MEETS STABILITY CRITERION OF THE ADVECTION TERM
 (FOR PURE FINITE-DIFFERENCE OPTION, MIXELM=0) 
 =  3.730    (WHEN MIN. R.F.=1)  AT K=   2, I=   1, J=  60


 TOTAL NUMBER OF POINT SOURCES/SINKS PRESENT IN THE FLOW MODEL =    62

 MAXIMUM STEPSIZE WHICH MEETS STABILITY CRITERION OF THE SINK & SOURCE TERM
 =  87.64    (WHEN MIN. R.F.=1)  AT K=   2, I=   1, J= 120

 MAXIMUM STEPSIZE WHICH MEETS STABILITY CRITERION OF THE DISPERSION TERM
 =  20.29    (WHEN MIN. R.F.=1)  AT K=   1, I=   1, J=  31
     1 CALLS TO GCG PACKAGE FOR TRANSPORT TIME STEP   5 IN FLOW TIME STEP  48 STRESS PERIOD   1
     3 TOTAL ITERATIONS
  MAXIMUM CONCENTRATION CHANGES FOR EACH ITERATION:
  MAX. CHANGE LAYER,ROW,COL MAX. CHANGE LAYER,ROW,COL MAX. CHANGE LAYER,ROW,COL MAX. CHANGE LAYER,ROW,COL MAX. CHANGE LAYER,ROW,COL
 ------------------------------------------------------------------------------------------------------------------------------------
   0.7187E-03 (  2,  1, 62)  0.6127E-06 (  2,  1, 76)  0.6177E-09 (  3,  1, 76)


                                          ================================================
                                                         FROM TIME =   480.00     TO    490.00    

 
 SOLVING FOR HEAD 
 FLOW MODEL IS TRANSIENT
 FLOW MODEL CONTAINS CONSTANT-HEAD CELLS


 MAXIMUM STEPSIZE DURING WHICH ANY PARTICLE CANNOT MOVE MORE THAN ONE CELL
 =  4.598    (WHEN MIN. R.F.=1)  AT K=   4, I=   1, J=  60

 MAXIMUM STEPSIZE WHICH MEETS STABILITY CRITERION OF THE ADVECTION TERM
 (FOR PURE FINITE-DIFFERENCE OPTION, MIXELM=0) 
 =  3.729    (WHEN MIN. R.F.=1)  AT K=   2, I=   1, J=  60


 TOTAL NUMBER OF POINT SOURCES/SINKS PRESENT IN THE FLOW MODEL =    62

 MAXIMUM STEPSIZE WHICH MEETS STABILITY CRITERION OF THE SINK & SOURCE TERM
 =  92.56    (WHEN MIN. R.F.=1)  AT K=   2, I=   1, J= 120

 MAXIMUM STEPSIZE WHICH MEETS STABILITY CRITERION OF THE DISPERSION TERM
 =  20.29    (WHEN MIN. R.F.=1)  AT K=   1, I=   1, J=  31


     1 CALLS TO GCG PACKAGE FOR TRANSPORT TIME STEP   1 IN FLOW TIME STEP  49 STRESS PERIOD   1
     6 TOTAL ITERATIONS

 NO OUTPUT CONTROL FOR STRESS PERIOD    1   TIME STEP  49
 
 SOLVING FOR HEAD 
 FLOW MODEL IS TRANSIENT
 FLOW MODEL CONTAINS CONSTANT-HEAD CELLS


 MAXIMUM STEPSIZE DURING WHICH ANY PARTICLE CANNOT MOVE MORE THAN ONE CELL
 =  4.584    (WHEN MIN. R.F.=1)  AT K=   4, I=   1, J=  60

 MAXIMUM STEPSIZE WHICH MEETS STABILITY CRITERION OF THE ADVECTION TERM
 (FOR PURE FINITE-DIFFERENCE OPTION, MIXELM=0) 
 =  3.620    (WHEN MIN. R.F.=1)  AT K=   2, I=   1, J=  45


 TOTAL NUMBER OF POINT SOURCES/SINKS PRESENT IN THE FLOW MODEL =    62

 MAXIMUM STEPSIZE WHICH MEETS STABILITY CRITERION OF THE SINK & SOURCE TERM
 =  90.96    (WHEN MIN. R.F.=1)  AT K=   2, I=   1, J= 120

 MAXIMUM STEPSIZE WHICH MEETS STABILITY CRITERION OF THE DISPERSION TERM
 =  20.29    (WHEN MIN. R.F.=1)  AT K=   1, I=   1, J=  31
     1 CALLS TO GCG PACKAGE FOR TRANSPORT TIME STEP   2 IN FLOW TIME STEP  49 STRESS PERIOD   1
     6 TOTAL ITERATIONS
 
 SOLVING FOR HEAD 
 FLOW MODEL IS TRANSIENT
 FLOW MODEL CONTAINS CONSTANT-HEAD CELLS


 MAXIMUM STEPSIZE DURING WHICH ANY PARTICLE CANNOT MOVE MORE THAN ONE CELL
 =  4.569    (WHEN MIN. R.F.=1)  AT K=   4, I=   1, J=  60

 MAXIMUM STEPSIZE WHICH MEETS STABILITY CRITERION OF THE ADVECTION TERM
 (FOR PURE FINITE-DIFFERENCE OPTION, MIXELM=0) 
 =  3.533    (WHEN MIN. R.F.=1)  AT K=   2, I=   1, J=  45


 TOTAL NUMBER OF POINT SOURCES/SINKS PRESENT IN THE FLOW MODEL =    62

 MAXIMUM STEPSIZE WHICH MEETS STABILITY CRITERION OF THE SINK & SOURCE TERM
 =  91.65    (WHEN MIN. R.F.=1)  AT K=   2, I=   1, J= 120

 MAXIMUM STEPSIZE WHICH MEETS STABILITY CRITERION OF THE DISPERSION TERM
 =  20.29    (WHEN MIN. R.F.=1)  AT K=   1, I=   1, J=  31
     1 CALLS TO GCG PACKAGE FOR TRANSPORT TIME STEP   3 IN FLOW TIME STEP  49 STRESS PERIOD   1
     6 TOTAL ITERATIONS
 
 SOLVING FOR HEAD 
 FLOW MODEL IS TRANSIENT
 FLOW MODEL CONTAINS CONSTANT-HEAD CELLS


 MAXIMUM STEPSIZE DURING WHICH ANY PARTICLE CANNOT MOVE MORE THAN ONE CELL
 =  4.559    (WHEN MIN. R.F.=1)  AT K=   4, I=   1, J=  60

 MAXIMUM STEPSIZE WHICH MEETS STABILITY CRITERION OF THE ADVECTION TERM
 (FOR PURE FINITE-DIFFERENCE OPTION, MIXELM=0) 
 =  3.441    (WHEN MIN. R.F.=1)  AT K=   2, I=   1, J=  76


 TOTAL NUMBER OF POINT SOURCES/SINKS PRESENT IN THE FLOW MODEL =    62

 MAXIMUM STEPSIZE WHICH MEETS STABILITY CRITERION OF THE SINK & SOURCE TERM
 =  92.15    (WHEN MIN. R.F.=1)  AT K=   2, I=   1, J= 120

 MAXIMUM STEPSIZE WHICH MEETS STABILITY CRITERION OF THE DISPERSION TERM
 =  20.29    (WHEN MIN. R.F.=1)  AT K=   1, I=   1, J=  31
     1 CALLS TO GCG PACKAGE FOR TRANSPORT TIME STEP   4 IN FLOW TIME STEP  49 STRESS PERIOD   1
     5 TOTAL ITERATIONS
  MAXIMUM CONCENTRATION CHANGES FOR EACH ITERATION:
  MAX. CHANGE LAYER,ROW,COL MAX. CHANGE LAYER,ROW,COL MAX. CHANGE LAYER,ROW,COL MAX. CHANGE LAYER,ROW,COL MAX. CHANGE LAYER,ROW,COL
 ------------------------------------------------------------------------------------------------------------------------------------
   0.2778E-01 (  2,  1, 62)  0.7690E-03 (  2,  1, 76)  0.2611E-04 (  3,  1, 76)  0.9560E-06 (  3,  1, 63)  0.3107E-07 (  4,  1, 77)


                                          ================================================
                                                         FROM TIME =   490.00     TO    500.00    

 
 SOLVING FOR HEAD 
 FLOW MODEL IS TRANSIENT
 FLOW MODEL CONTAINS CONSTANT-HEAD CELLS


 MAXIMUM STEPSIZE DURING WHICH ANY PARTICLE CANNOT MOVE MORE THAN ONE CELL
 =  4.558    (WHEN MIN. R.F.=1)  AT K=   4, I=   1, J=  60

 MAXIMUM STEPSIZE WHICH MEETS STABILITY CRITERION OF THE ADVECTION TERM
 (FOR PURE FINITE-DIFFERENCE OPTION, MIXELM=0) 
 =  3.423    (WHEN MIN. R.F.=1)  AT K=   2, I=   1, J=  76


 TOTAL NUMBER OF POINT SOURCES/SINKS PRESENT IN THE FLOW MODEL =    62

 MAXIMUM STEPSIZE WHICH MEETS STABILITY CRITERION OF THE SINK & SOURCE TERM
 =  94.43    (WHEN MIN. R.F.=1)  AT K=   2, I=   1, J= 120

 MAXIMUM STEPSIZE WHICH MEETS STABILITY CRITERION OF THE DISPERSION TERM
 =  20.29    (WHEN MIN. R.F.=1)  AT K=   1, I=   1, J=  31


     1 CALLS TO GCG PACKAGE FOR TRANSPORT TIME STEP   1 IN FLOW TIME STEP  50 STRESS PERIOD   1
     6 TOTAL ITERATIONS

 NO OUTPUT CONTROL FOR STRESS PERIOD    1   TIME STEP  50
 
 SOLVING FOR HEAD 
 FLOW MODEL IS TRANSIENT
 FLOW MODEL CONTAINS CONSTANT-HEAD CELLS


 MAXIMUM STEPSIZE DURING WHICH ANY PARTICLE CANNOT MOVE MORE THAN ONE CELL
 =  4.552    (WHEN MIN. R.F.=1)  AT K=   4, I=   1, J=  60

 MAXIMUM STEPSIZE WHICH MEETS STABILITY CRITERION OF THE ADVECTION TERM
 (FOR PURE FINITE-DIFFERENCE OPTION, MIXELM=0) 
 =  3.462    (WHEN MIN. R.F.=1)  AT K=   2, I=   1, J=  76


 TOTAL NUMBER OF POINT SOURCES/SINKS PRESENT IN THE FLOW MODEL =    62

 MAXIMUM STEPSIZE WHICH MEETS STABILITY CRITERION OF THE SINK & SOURCE TERM
 =  92.99    (WHEN MIN. R.F.=1)  AT K=   2, I=   1, J= 120

 MAXIMUM STEPSIZE WHICH MEETS STABILITY CRITERION OF THE DISPERSION TERM
 =  20.29    (WHEN MIN. R.F.=1)  AT K=   1, I=   1, J=  31
     1 CALLS TO GCG PACKAGE FOR TRANSPORT TIME STEP   2 IN FLOW TIME STEP  50 STRESS PERIOD   1
     6 TOTAL ITERATIONS
 
 SOLVING FOR HEAD 
 FLOW MODEL IS TRANSIENT
 FLOW MODEL CONTAINS CONSTANT-HEAD CELLS


 MAXIMUM STEPSIZE DURING WHICH ANY PARTICLE CANNOT MOVE MORE THAN ONE CELL
 =  4.543    (WHEN MIN. R.F.=1)  AT K=   4, I=   1, J=  60

 MAXIMUM STEPSIZE WHICH MEETS STABILITY CRITERION OF THE ADVECTION TERM
 (FOR PURE FINITE-DIFFERENCE OPTION, MIXELM=0) 
 =  3.650    (WHEN MIN. R.F.=1)  AT K=   2, I=   1, J=  76


 TOTAL NUMBER OF POINT SOURCES/SINKS PRESENT IN THE FLOW MODEL =    62

 MAXIMUM STEPSIZE WHICH MEETS STABILITY CRITERION OF THE SINK & SOURCE TERM
 =  92.43    (WHEN MIN. R.F.=1)  AT K=   2, I=   1, J= 120

 MAXIMUM STEPSIZE WHICH MEETS STABILITY CRITERION OF THE DISPERSION TERM
 =  20.29    (WHEN MIN. R.F.=1)  AT K=   1, I=   1, J=  31
     1 CALLS TO GCG PACKAGE FOR TRANSPORT TIME STEP   3 IN FLOW TIME STEP  50 STRESS PERIOD   1
     6 TOTAL ITERATIONS
 
 SOLVING FOR HEAD 
 FLOW MODEL IS TRANSIENT
 FLOW MODEL CONTAINS CONSTANT-HEAD CELLS


 MAXIMUM STEPSIZE DURING WHICH ANY PARTICLE CANNOT MOVE MORE THAN ONE CELL
 =  4.533    (WHEN MIN. R.F.=1)  AT K=   4, I=   1, J=  60

 MAXIMUM STEPSIZE WHICH MEETS STABILITY CRITERION OF THE ADVECTION TERM
 (FOR PURE FINITE-DIFFERENCE OPTION, MIXELM=0) 
 =  3.704    (WHEN MIN. R.F.=1)  AT K=   2, I=   1, J=  60


 TOTAL NUMBER OF POINT SOURCES/SINKS PRESENT IN THE FLOW MODEL =    62

 MAXIMUM STEPSIZE WHICH MEETS STABILITY CRITERION OF THE SINK & SOURCE TERM
 =  92.53    (WHEN MIN. R.F.=1)  AT K=   2, I=   1, J= 120

 MAXIMUM STEPSIZE WHICH MEETS STABILITY CRITERION OF THE DISPERSION TERM
 =  20.29    (WHEN MIN. R.F.=1)  AT K=   1, I=   1, J=  31
     1 CALLS TO GCG PACKAGE FOR TRANSPORT TIME STEP   4 IN FLOW TIME STEP  50 STRESS PERIOD   1
     6 TOTAL ITERATIONS
  MAXIMUM CONCENTRATION CHANGES FOR EACH ITERATION:
  MAX. CHANGE LAYER,ROW,COL MAX. CHANGE LAYER,ROW,COL MAX. CHANGE LAYER,ROW,COL MAX. CHANGE LAYER,ROW,COL MAX. CHANGE LAYER,ROW,COL
 ------------------------------------------------------------------------------------------------------------------------------------
   0.3774E-01 (  2,  1, 62)  0.1313E-02 (  2,  1, 62)  0.5591E-04 (  2,  1, 63)  0.3018E-05 (  3,  1, 63)  0.1202E-06 (  3,  1, 64)
   0.6476E-08 (  4,  1, 64)


                                          ================================================
                                                         FROM TIME =   500.00     TO    510.00    

 
 SOLVING FOR HEAD 
 FLOW MODEL IS TRANSIENT
 FLOW MODEL CONTAINS CONSTANT-HEAD CELLS


 MAXIMUM STEPSIZE DURING WHICH ANY PARTICLE CANNOT MOVE MORE THAN ONE CELL
 =  4.527    (WHEN MIN. R.F.=1)  AT K=   4, I=   1, J=  60

 MAXIMUM STEPSIZE WHICH MEETS STABILITY CRITERION OF THE ADVECTION TERM
 (FOR PURE FINITE-DIFFERENCE OPTION, MIXELM=0) 
 =  3.701    (WHEN MIN. R.F.=1)  AT K=   2, I=   1, J=  60


 TOTAL NUMBER OF POINT SOURCES/SINKS PRESENT IN THE FLOW MODEL =    62

 MAXIMUM STEPSIZE WHICH MEETS STABILITY CRITERION OF THE SINK & SOURCE TERM
 =  93.35    (WHEN MIN. R.F.=1)  AT K=   2, I=   1, J= 120

 MAXIMUM STEPSIZE WHICH MEETS STABILITY CRITERION OF THE DISPERSION TERM
 =  20.29    (WHEN MIN. R.F.=1)  AT K=   1, I=   1, J=  31


     1 CALLS TO GCG PACKAGE FOR TRANSPORT TIME STEP   1 IN FLOW TIME STEP  51 STRESS PERIOD   1
     6 TOTAL ITERATIONS

 NO OUTPUT CONTROL FOR STRESS PERIOD    1   TIME STEP  51
 
 SOLVING FOR HEAD 
 FLOW MODEL IS TRANSIENT
 FLOW MODEL CONTAINS CONSTANT-HEAD CELLS


 MAXIMUM STEPSIZE DURING WHICH ANY PARTICLE CANNOT MOVE MORE THAN ONE CELL
 =  4.518    (WHEN MIN. R.F.=1)  AT K=   4, I=   1, J=  60

 MAXIMUM STEPSIZE WHICH MEETS STABILITY CRITERION OF THE ADVECTION TERM
 (FOR PURE FINITE-DIFFERENCE OPTION, MIXELM=0) 
 =  3.696    (WHEN MIN. R.F.=1)  AT K=   2, I=   1, J=  60


 TOTAL NUMBER OF POINT SOURCES/SINKS PRESENT IN THE FLOW MODEL =    62

 MAXIMUM STEPSIZE WHICH MEETS STABILITY CRITERION OF THE SINK & SOURCE TERM
 =  92.58    (WHEN MIN. R.F.=1)  AT K=   2, I=   1, J= 120

 MAXIMUM STEPSIZE WHICH MEETS STABILITY CRITERION OF THE DISPERSION TERM
 =  20.29    (WHEN MIN. R.F.=1)  AT K=   1, I=   1, J=  31
     1 CALLS TO GCG PACKAGE FOR TRANSPORT TIME STEP   2 IN FLOW TIME STEP  51 STRESS PERIOD   1
     6 TOTAL ITERATIONS
 
 SOLVING FOR HEAD 
 FLOW MODEL IS TRANSIENT
 FLOW MODEL CONTAINS CONSTANT-HEAD CELLS


 MAXIMUM STEPSIZE DURING WHICH ANY PARTICLE CANNOT MOVE MORE THAN ONE CELL
 =  4.508    (WHEN MIN. R.F.=1)  AT K=   4, I=   1, J=  60

 MAXIMUM STEPSIZE WHICH MEETS STABILITY CRITERION OF THE ADVECTION TERM
 (FOR PURE FINITE-DIFFERENCE OPTION, MIXELM=0) 
 =  3.696    (WHEN MIN. R.F.=1)  AT K=   2, I=   1, J=  60


 TOTAL NUMBER OF POINT SOURCES/SINKS PRESENT IN THE FLOW MODEL =    62

 MAXIMUM STEPSIZE WHICH MEETS STABILITY CRITERION OF THE SINK & SOURCE TERM
 =  93.05    (WHEN MIN. R.F.=1)  AT K=   2, I=   1, J= 120

 MAXIMUM STEPSIZE WHICH MEETS STABILITY CRITERION OF THE DISPERSION TERM
 =  20.29    (WHEN MIN. R.F.=1)  AT K=   1, I=   1, J=  31
     1 CALLS TO GCG PACKAGE FOR TRANSPORT TIME STEP   3 IN FLOW TIME STEP  51 STRESS PERIOD   1
     6 TOTAL ITERATIONS
 
 SOLVING FOR HEAD 
 FLOW MODEL IS TRANSIENT
 FLOW MODEL CONTAINS CONSTANT-HEAD CELLS


 MAXIMUM STEPSIZE DURING WHICH ANY PARTICLE CANNOT MOVE MORE THAN ONE CELL
 =  4.501    (WHEN MIN. R.F.=1)  AT K=   4, I=   1, J=  60

 MAXIMUM STEPSIZE WHICH MEETS STABILITY CRITERION OF THE ADVECTION TERM
 (FOR PURE FINITE-DIFFERENCE OPTION, MIXELM=0) 
 =  3.698    (WHEN MIN. R.F.=1)  AT K=   2, I=   1, J=  60


 TOTAL NUMBER OF POINT SOURCES/SINKS PRESENT IN THE FLOW MODEL =    62

 MAXIMUM STEPSIZE WHICH MEETS STABILITY CRITERION OF THE SINK & SOURCE TERM
 =  93.06    (WHEN MIN. R.F.=1)  AT K=   2, I=   1, J= 120

 MAXIMUM STEPSIZE WHICH MEETS STABILITY CRITERION OF THE DISPERSION TERM
 =  20.29    (WHEN MIN. R.F.=1)  AT K=   1, I=   1, J=  31
     1 CALLS TO GCG PACKAGE FOR TRANSPORT TIME STEP   4 IN FLOW TIME STEP  51 STRESS PERIOD   1
     5 TOTAL ITERATIONS
  MAXIMUM CONCENTRATION CHANGES FOR EACH ITERATION:
  MAX. CHANGE LAYER,ROW,COL MAX. CHANGE LAYER,ROW,COL MAX. CHANGE LAYER,ROW,COL MAX. CHANGE LAYER,ROW,COL MAX. CHANGE LAYER,ROW,COL
 ------------------------------------------------------------------------------------------------------------------------------------
   0.2747E-01 (  2,  1, 62)  0.7434E-03 (  2,  1, 62)  0.2339E-04 (  2,  1, 63)  0.9772E-06 (  3,  1, 63)  0.2894E-07 (  3,  1, 64)


                                          ================================================
                                                         FROM TIME =   510.00     TO    520.00    

 
 SOLVING FOR HEAD 
 FLOW MODEL IS TRANSIENT
 FLOW MODEL CONTAINS CONSTANT-HEAD CELLS


 MAXIMUM STEPSIZE DURING WHICH ANY PARTICLE CANNOT MOVE MORE THAN ONE CELL
 =  4.503    (WHEN MIN. R.F.=1)  AT K=   4, I=   1, J=  60

 MAXIMUM STEPSIZE WHICH MEETS STABILITY CRITERION OF THE ADVECTION TERM
 (FOR PURE FINITE-DIFFERENCE OPTION, MIXELM=0) 
 =  3.699    (WHEN MIN. R.F.=1)  AT K=   2, I=   1, J=  60


 TOTAL NUMBER OF POINT SOURCES/SINKS PRESENT IN THE FLOW MODEL =    62

 MAXIMUM STEPSIZE WHICH MEETS STABILITY CRITERION OF THE SINK & SOURCE TERM
 =  95.25    (WHEN MIN. R.F.=1)  AT K=   2, I=   1, J= 120

 MAXIMUM STEPSIZE WHICH MEETS STABILITY CRITERION OF THE DISPERSION TERM
 =  20.29    (WHEN MIN. R.F.=1)  AT K=   1, I=   1, J=  31


     1 CALLS TO GCG PACKAGE FOR TRANSPORT TIME STEP   1 IN FLOW TIME STEP  52 STRESS PERIOD   1
     6 TOTAL ITERATIONS

 NO OUTPUT CONTROL FOR STRESS PERIOD    1   TIME STEP  52
 
 SOLVING FOR HEAD 
 FLOW MODEL IS TRANSIENT
 FLOW MODEL CONTAINS CONSTANT-HEAD CELLS


 MAXIMUM STEPSIZE DURING WHICH ANY PARTICLE CANNOT MOVE MORE THAN ONE CELL
 =  4.499    (WHEN MIN. R.F.=1)  AT K=   4, I=   1, J=  60

 MAXIMUM STEPSIZE WHICH MEETS STABILITY CRITERION OF THE ADVECTION TERM
 (FOR PURE FINITE-DIFFERENCE OPTION, MIXELM=0) 
 =  3.693    (WHEN MIN. R.F.=1)  AT K=   2, I=   1, J=  60


 TOTAL NUMBER OF POINT SOURCES/SINKS PRESENT IN THE FLOW MODEL =    62

 MAXIMUM STEPSIZE WHICH MEETS STABILITY CRITERION OF THE SINK & SOURCE TERM
 =  93.27    (WHEN MIN. R.F.=1)  AT K=   2, I=   1, J= 120

 MAXIMUM STEPSIZE WHICH MEETS STABILITY CRITERION OF THE DISPERSION TERM
 =  20.29    (WHEN MIN. R.F.=1)  AT K=   1, I=   1, J=  31
     1 CALLS TO GCG PACKAGE FOR TRANSPORT TIME STEP   2 IN FLOW TIME STEP  52 STRESS PERIOD   1
     6 TOTAL ITERATIONS
 
 SOLVING FOR HEAD 
 FLOW MODEL IS TRANSIENT
 FLOW MODEL CONTAINS CONSTANT-HEAD CELLS


 MAXIMUM STEPSIZE DURING WHICH ANY PARTICLE CANNOT MOVE MORE THAN ONE CELL
 =  4.492    (WHEN MIN. R.F.=1)  AT K=   4, I=   1, J=  60

 MAXIMUM STEPSIZE WHICH MEETS STABILITY CRITERION OF THE ADVECTION TERM
 (FOR PURE FINITE-DIFFERENCE OPTION, MIXELM=0) 
 =  3.464    (WHEN MIN. R.F.=1)  AT K=   2, I=   1, J=  47


 TOTAL NUMBER OF POINT SOURCES/SINKS PRESENT IN THE FLOW MODEL =    62

 MAXIMUM STEPSIZE WHICH MEETS STABILITY CRITERION OF THE SINK & SOURCE TERM
 =  92.73    (WHEN MIN. R.F.=1)  AT K=   2, I=   1, J= 120

 MAXIMUM STEPSIZE WHICH MEETS STABILITY CRITERION OF THE DISPERSION TERM
 =  20.29    (WHEN MIN. R.F.=1)  AT K=   1, I=   1, J=  31
     1 CALLS TO GCG PACKAGE FOR TRANSPORT TIME STEP   3 IN FLOW TIME STEP  52 STRESS PERIOD   1
     6 TOTAL ITERATIONS
 
 SOLVING FOR HEAD 
 FLOW MODEL IS TRANSIENT
 FLOW MODEL CONTAINS CONSTANT-HEAD CELLS


 MAXIMUM STEPSIZE DURING WHICH ANY PARTICLE CANNOT MOVE MORE THAN ONE CELL
 =  4.470    (WHEN MIN. R.F.=1)  AT K=   3, I=   1, J=  47

 MAXIMUM STEPSIZE WHICH MEETS STABILITY CRITERION OF THE ADVECTION TERM
 (FOR PURE FINITE-DIFFERENCE OPTION, MIXELM=0) 
 =  3.303    (WHEN MIN. R.F.=1)  AT K=   2, I=   1, J=  47


 TOTAL NUMBER OF POINT SOURCES/SINKS PRESENT IN THE FLOW MODEL =    62

 MAXIMUM STEPSIZE WHICH MEETS STABILITY CRITERION OF THE SINK & SOURCE TERM
 =  92.28    (WHEN MIN. R.F.=1)  AT K=   2, I=   1, J= 120

 MAXIMUM STEPSIZE WHICH MEETS STABILITY CRITERION OF THE DISPERSION TERM
 =  20.29    (WHEN MIN. R.F.=1)  AT K=   1, I=   1, J=  31
     1 CALLS TO GCG PACKAGE FOR TRANSPORT TIME STEP   4 IN FLOW TIME STEP  52 STRESS PERIOD   1
     5 TOTAL ITERATIONS
  MAXIMUM CONCENTRATION CHANGES FOR EACH ITERATION:
  MAX. CHANGE LAYER,ROW,COL MAX. CHANGE LAYER,ROW,COL MAX. CHANGE LAYER,ROW,COL MAX. CHANGE LAYER,ROW,COL MAX. CHANGE LAYER,ROW,COL
 ------------------------------------------------------------------------------------------------------------------------------------
   0.2761E-01 (  2,  1, 62)  0.7565E-03 (  2,  1, 62)  0.2293E-04 (  2,  1, 63)  0.9892E-06 (  3,  1, 63)  0.2894E-07 (  3,  1, 64)


                                          ================================================
                                                         FROM TIME =   520.00     TO    530.00    

 
 SOLVING FOR HEAD 
 FLOW MODEL IS TRANSIENT
 FLOW MODEL CONTAINS CONSTANT-HEAD CELLS


 MAXIMUM STEPSIZE DURING WHICH ANY PARTICLE CANNOT MOVE MORE THAN ONE CELL
 =  4.333    (WHEN MIN. R.F.=1)  AT K=   4, I=   1, J=  47

 MAXIMUM STEPSIZE WHICH MEETS STABILITY CRITERION OF THE ADVECTION TERM
 (FOR PURE FINITE-DIFFERENCE OPTION, MIXELM=0) 
 =  3.267    (WHEN MIN. R.F.=1)  AT K=   2, I=   1, J=  47


 TOTAL NUMBER OF POINT SOURCES/SINKS PRESENT IN THE FLOW MODEL =    62

 MAXIMUM STEPSIZE WHICH MEETS STABILITY CRITERION OF THE SINK & SOURCE TERM
 =  94.32    (WHEN MIN. R.F.=1)  AT K=   2, I=   1, J= 120

 MAXIMUM STEPSIZE WHICH MEETS STABILITY CRITERION OF THE DISPERSION TERM
 =  20.29    (WHEN MIN. R.F.=1)  AT K=   1, I=   1, J=  31


     1 CALLS TO GCG PACKAGE FOR TRANSPORT TIME STEP   1 IN FLOW TIME STEP  53 STRESS PERIOD   1
     6 TOTAL ITERATIONS

 NO OUTPUT CONTROL FOR STRESS PERIOD    1   TIME STEP  53
 
 SOLVING FOR HEAD 
 FLOW MODEL IS TRANSIENT
 FLOW MODEL CONTAINS CONSTANT-HEAD CELLS


 MAXIMUM STEPSIZE DURING WHICH ANY PARTICLE CANNOT MOVE MORE THAN ONE CELL
 =  4.188    (WHEN MIN. R.F.=1)  AT K=   4, I=   1, J=  47

 MAXIMUM STEPSIZE WHICH MEETS STABILITY CRITERION OF THE ADVECTION TERM
 (FOR PURE FINITE-DIFFERENCE OPTION, MIXELM=0) 
 =  3.264    (WHEN MIN. R.F.=1)  AT K=   2, I=   1, J=  47


 TOTAL NUMBER OF POINT SOURCES/SINKS PRESENT IN THE FLOW MODEL =    62

 MAXIMUM STEPSIZE WHICH MEETS STABILITY CRITERION OF THE SINK & SOURCE TERM
 =  93.20    (WHEN MIN. R.F.=1)  AT K=   2, I=   1, J= 120

 MAXIMUM STEPSIZE WHICH MEETS STABILITY CRITERION OF THE DISPERSION TERM
 =  20.29    (WHEN MIN. R.F.=1)  AT K=   1, I=   1, J=  31
     1 CALLS TO GCG PACKAGE FOR TRANSPORT TIME STEP   2 IN FLOW TIME STEP  53 STRESS PERIOD   1
     5 TOTAL ITERATIONS



 >>>>>>>>>>>>>>>>>>>>>>>>>>>>>>>>>>>>>>>>>>>>>>>>>>>>>>>FOR COMPONENT NO. 01<<<<<<<<<<<<<<<<<<<<<<<<<<<<<<<<<<<<<<<<<<<<<<<<<<<<<<<


                                            -------------------------------------------
                                                      TRANSPORT STEP NO.    2
                                            -------------------------------------------

 TOTAL ELAPSED TIME SINCE BEGINNING OF SIMULATION =   524.4800    D   
 .....................................................................

                     CUMULATIVE MASS BUDGETS AT END OF TRANSPORT STEP    2, TIME STEP   53, STRESS PERIOD    1
                     ------------------------------------------------------------------------------------------

                                                             IN                           OUT
                                                      ----------------             ----------------
                               CONSTANT CONCENTRATION:    389306.7                   -25011.34    
                                        CONSTANT HEAD:    0.000000                  -0.9287418E-49
                               MASS STOR (FLOW MODEL):    83.47561                   -12.20923    
                                MASS STORAGE (SOLUTE):    393411.1                   -757777.7    
                            ---------------------------------------------------------------------------
                                              [TOTAL]:    782801.3     KG            -782801.3     KG  

                                                          NET (IN - OUT):   0.6202471E-02
                                                   DISCREPANCY (PERCENT):   0.7923429E-06
 
 SOLVING FOR HEAD 
 FLOW MODEL IS TRANSIENT
 FLOW MODEL CONTAINS CONSTANT-HEAD CELLS


 MAXIMUM STEPSIZE DURING WHICH ANY PARTICLE CANNOT MOVE MORE THAN ONE CELL
 =  4.159    (WHEN MIN. R.F.=1)  AT K=   4, I=   1, J=  47

 MAXIMUM STEPSIZE WHICH MEETS STABILITY CRITERION OF THE ADVECTION TERM
 (FOR PURE FINITE-DIFFERENCE OPTION, MIXELM=0) 
 =  3.298    (WHEN MIN. R.F.=1)  AT K=   2, I=   1, J=  47


 TOTAL NUMBER OF POINT SOURCES/SINKS PRESENT IN THE FLOW MODEL =    62

 MAXIMUM STEPSIZE WHICH MEETS STABILITY CRITERION OF THE SINK & SOURCE TERM
 =  94.30    (WHEN MIN. R.F.=1)  AT K=   2, I=   1, J= 120

 MAXIMUM STEPSIZE WHICH MEETS STABILITY CRITERION OF THE DISPERSION TERM
 =  20.29    (WHEN MIN. R.F.=1)  AT K=   1, I=   1, J=  31
     1 CALLS TO GCG PACKAGE FOR TRANSPORT TIME STEP   3 IN FLOW TIME STEP  53 STRESS PERIOD   1
     6 TOTAL ITERATIONS
 
 SOLVING FOR HEAD 
 FLOW MODEL IS TRANSIENT
 FLOW MODEL CONTAINS CONSTANT-HEAD CELLS


 MAXIMUM STEPSIZE DURING WHICH ANY PARTICLE CANNOT MOVE MORE THAN ONE CELL
 =  4.183    (WHEN MIN. R.F.=1)  AT K=   4, I=   1, J=  74

 MAXIMUM STEPSIZE WHICH MEETS STABILITY CRITERION OF THE ADVECTION TERM
 (FOR PURE FINITE-DIFFERENCE OPTION, MIXELM=0) 
 =  3.299    (WHEN MIN. R.F.=1)  AT K=   2, I=   1, J=  74


 TOTAL NUMBER OF POINT SOURCES/SINKS PRESENT IN THE FLOW MODEL =    62

 MAXIMUM STEPSIZE WHICH MEETS STABILITY CRITERION OF THE SINK & SOURCE TERM
 =  93.55    (WHEN MIN. R.F.=1)  AT K=   2, I=   1, J= 120

 MAXIMUM STEPSIZE WHICH MEETS STABILITY CRITERION OF THE DISPERSION TERM
 =  20.29    (WHEN MIN. R.F.=1)  AT K=   1, I=   1, J=  31
     1 CALLS TO GCG PACKAGE FOR TRANSPORT TIME STEP   4 IN FLOW TIME STEP  53 STRESS PERIOD   1
     6 TOTAL ITERATIONS
 
 SOLVING FOR HEAD 
 FLOW MODEL IS TRANSIENT
 FLOW MODEL CONTAINS CONSTANT-HEAD CELLS


 MAXIMUM STEPSIZE DURING WHICH ANY PARTICLE CANNOT MOVE MORE THAN ONE CELL
 =  4.118    (WHEN MIN. R.F.=1)  AT K=   4, I=   1, J=  74

 MAXIMUM STEPSIZE WHICH MEETS STABILITY CRITERION OF THE ADVECTION TERM
 (FOR PURE FINITE-DIFFERENCE OPTION, MIXELM=0) 
 =  3.305    (WHEN MIN. R.F.=1)  AT K=   3, I=   1, J=  74


 TOTAL NUMBER OF POINT SOURCES/SINKS PRESENT IN THE FLOW MODEL =    62

 MAXIMUM STEPSIZE WHICH MEETS STABILITY CRITERION OF THE SINK & SOURCE TERM
 =  92.41    (WHEN MIN. R.F.=1)  AT K=   2, I=   1, J= 120

 MAXIMUM STEPSIZE WHICH MEETS STABILITY CRITERION OF THE DISPERSION TERM
 =  20.29    (WHEN MIN. R.F.=1)  AT K=   1, I=   1, J=  31
     1 CALLS TO GCG PACKAGE FOR TRANSPORT TIME STEP   5 IN FLOW TIME STEP  53 STRESS PERIOD   1
     4 TOTAL ITERATIONS
  MAXIMUM CONCENTRATION CHANGES FOR EACH ITERATION:
  MAX. CHANGE LAYER,ROW,COL MAX. CHANGE LAYER,ROW,COL MAX. CHANGE LAYER,ROW,COL MAX. CHANGE LAYER,ROW,COL MAX. CHANGE LAYER,ROW,COL
 ------------------------------------------------------------------------------------------------------------------------------------
   0.9880E-02 (  2,  1, 62)  0.1013E-03 (  2,  1, 62)  0.1175E-05 (  2,  1, 63)  0.1880E-07 (  3,  1, 63)


                                          ================================================
                                                         FROM TIME =   530.00     TO    540.00    

 
 SOLVING FOR HEAD 
 FLOW MODEL IS TRANSIENT
 FLOW MODEL CONTAINS CONSTANT-HEAD CELLS


 MAXIMUM STEPSIZE DURING WHICH ANY PARTICLE CANNOT MOVE MORE THAN ONE CELL
 =  4.125    (WHEN MIN. R.F.=1)  AT K=   4, I=   1, J=  74

 MAXIMUM STEPSIZE WHICH MEETS STABILITY CRITERION OF THE ADVECTION TERM
 (FOR PURE FINITE-DIFFERENCE OPTION, MIXELM=0) 
 =  3.297    (WHEN MIN. R.F.=1)  AT K=   3, I=   1, J=  74


 TOTAL NUMBER OF POINT SOURCES/SINKS PRESENT IN THE FLOW MODEL =    62

 MAXIMUM STEPSIZE WHICH MEETS STABILITY CRITERION OF THE SINK & SOURCE TERM
 =  96.51    (WHEN MIN. R.F.=1)  AT K=   2, I=   1, J= 120

 MAXIMUM STEPSIZE WHICH MEETS STABILITY CRITERION OF THE DISPERSION TERM
 =  20.29    (WHEN MIN. R.F.=1)  AT K=   1, I=   1, J=  31


     1 CALLS TO GCG PACKAGE FOR TRANSPORT TIME STEP   1 IN FLOW TIME STEP  54 STRESS PERIOD   1
     6 TOTAL ITERATIONS

 NO OUTPUT CONTROL FOR STRESS PERIOD    1   TIME STEP  54
 
 SOLVING FOR HEAD 
 FLOW MODEL IS TRANSIENT
 FLOW MODEL CONTAINS CONSTANT-HEAD CELLS


 MAXIMUM STEPSIZE DURING WHICH ANY PARTICLE CANNOT MOVE MORE THAN ONE CELL
 =  4.201    (WHEN MIN. R.F.=1)  AT K=   4, I=   1, J=  74

 MAXIMUM STEPSIZE WHICH MEETS STABILITY CRITERION OF THE ADVECTION TERM
 (FOR PURE FINITE-DIFFERENCE OPTION, MIXELM=0) 
 =  3.305    (WHEN MIN. R.F.=1)  AT K=   3, I=   1, J=  74


 TOTAL NUMBER OF POINT SOURCES/SINKS PRESENT IN THE FLOW MODEL =    62

 MAXIMUM STEPSIZE WHICH MEETS STABILITY CRITERION OF THE SINK & SOURCE TERM
 =  94.13    (WHEN MIN. R.F.=1)  AT K=   2, I=   1, J= 120

 MAXIMUM STEPSIZE WHICH MEETS STABILITY CRITERION OF THE DISPERSION TERM
 =  20.29    (WHEN MIN. R.F.=1)  AT K=   1, I=   1, J=  31
     1 CALLS TO GCG PACKAGE FOR TRANSPORT TIME STEP   2 IN FLOW TIME STEP  54 STRESS PERIOD   1
     6 TOTAL ITERATIONS
 
 SOLVING FOR HEAD 
 FLOW MODEL IS TRANSIENT
 FLOW MODEL CONTAINS CONSTANT-HEAD CELLS


 MAXIMUM STEPSIZE DURING WHICH ANY PARTICLE CANNOT MOVE MORE THAN ONE CELL
 =  4.302    (WHEN MIN. R.F.=1)  AT K=   5, I=   1, J=  74

 MAXIMUM STEPSIZE WHICH MEETS STABILITY CRITERION OF THE ADVECTION TERM
 (FOR PURE FINITE-DIFFERENCE OPTION, MIXELM=0) 
 =  3.371    (WHEN MIN. R.F.=1)  AT K=   3, I=   1, J=  74


 TOTAL NUMBER OF POINT SOURCES/SINKS PRESENT IN THE FLOW MODEL =    62

 MAXIMUM STEPSIZE WHICH MEETS STABILITY CRITERION OF THE SINK & SOURCE TERM
 =  94.06    (WHEN MIN. R.F.=1)  AT K=   2, I=   1, J= 120

 MAXIMUM STEPSIZE WHICH MEETS STABILITY CRITERION OF THE DISPERSION TERM
 =  20.29    (WHEN MIN. R.F.=1)  AT K=   1, I=   1, J=  31
     1 CALLS TO GCG PACKAGE FOR TRANSPORT TIME STEP   3 IN FLOW TIME STEP  54 STRESS PERIOD   1
     6 TOTAL ITERATIONS
 
 SOLVING FOR HEAD 
 FLOW MODEL IS TRANSIENT
 FLOW MODEL CONTAINS CONSTANT-HEAD CELLS


 MAXIMUM STEPSIZE DURING WHICH ANY PARTICLE CANNOT MOVE MORE THAN ONE CELL
 =  4.398    (WHEN MIN. R.F.=1)  AT K=   5, I=   1, J=  74

 MAXIMUM STEPSIZE WHICH MEETS STABILITY CRITERION OF THE ADVECTION TERM
 (FOR PURE FINITE-DIFFERENCE OPTION, MIXELM=0) 
 =  3.518    (WHEN MIN. R.F.=1)  AT K=   3, I=   1, J=  74


 TOTAL NUMBER OF POINT SOURCES/SINKS PRESENT IN THE FLOW MODEL =    62

 MAXIMUM STEPSIZE WHICH MEETS STABILITY CRITERION OF THE SINK & SOURCE TERM
 =  94.01    (WHEN MIN. R.F.=1)  AT K=   2, I=   1, J= 120

 MAXIMUM STEPSIZE WHICH MEETS STABILITY CRITERION OF THE DISPERSION TERM
 =  20.29    (WHEN MIN. R.F.=1)  AT K=   1, I=   1, J=  31
     1 CALLS TO GCG PACKAGE FOR TRANSPORT TIME STEP   4 IN FLOW TIME STEP  54 STRESS PERIOD   1
     6 TOTAL ITERATIONS
 
 SOLVING FOR HEAD 
 FLOW MODEL IS TRANSIENT
 FLOW MODEL CONTAINS CONSTANT-HEAD CELLS


 MAXIMUM STEPSIZE DURING WHICH ANY PARTICLE CANNOT MOVE MORE THAN ONE CELL
 =  4.439    (WHEN MIN. R.F.=1)  AT K=   4, I=   1, J=  60

 MAXIMUM STEPSIZE WHICH MEETS STABILITY CRITERION OF THE ADVECTION TERM
 (FOR PURE FINITE-DIFFERENCE OPTION, MIXELM=0) 
 =  3.637    (WHEN MIN. R.F.=1)  AT K=   4, I=   1, J=  74


 TOTAL NUMBER OF POINT SOURCES/SINKS PRESENT IN THE FLOW MODEL =    62

 MAXIMUM STEPSIZE WHICH MEETS STABILITY CRITERION OF THE SINK & SOURCE TERM
 =  92.62    (WHEN MIN. R.F.=1)  AT K=   2, I=   1, J= 120

 MAXIMUM STEPSIZE WHICH MEETS STABILITY CRITERION OF THE DISPERSION TERM
 =  20.29    (WHEN MIN. R.F.=1)  AT K=   1, I=   1, J=  31
     1 CALLS TO GCG PACKAGE FOR TRANSPORT TIME STEP   5 IN FLOW TIME STEP  54 STRESS PERIOD   1
     3 TOTAL ITERATIONS
  MAXIMUM CONCENTRATION CHANGES FOR EACH ITERATION:
  MAX. CHANGE LAYER,ROW,COL MAX. CHANGE LAYER,ROW,COL MAX. CHANGE LAYER,ROW,COL MAX. CHANGE LAYER,ROW,COL MAX. CHANGE LAYER,ROW,COL
 ------------------------------------------------------------------------------------------------------------------------------------
   0.6820E-03 (  2,  1, 62)  0.4883E-06 (  2,  1, 62)  0.4111E-09 (  2,  1, 63)


                                          ================================================
                                                         FROM TIME =   540.00     TO    550.00    

 
 SOLVING FOR HEAD 
 FLOW MODEL IS TRANSIENT
 FLOW MODEL CONTAINS CONSTANT-HEAD CELLS


 MAXIMUM STEPSIZE DURING WHICH ANY PARTICLE CANNOT MOVE MORE THAN ONE CELL
 =  4.439    (WHEN MIN. R.F.=1)  AT K=   4, I=   1, J=  60

 MAXIMUM STEPSIZE WHICH MEETS STABILITY CRITERION OF THE ADVECTION TERM
 (FOR PURE FINITE-DIFFERENCE OPTION, MIXELM=0) 
 =  3.637    (WHEN MIN. R.F.=1)  AT K=   4, I=   1, J=  74


 TOTAL NUMBER OF POINT SOURCES/SINKS PRESENT IN THE FLOW MODEL =    62

 MAXIMUM STEPSIZE WHICH MEETS STABILITY CRITERION OF THE SINK & SOURCE TERM
 =  95.20    (WHEN MIN. R.F.=1)  AT K=   2, I=   1, J= 120

 MAXIMUM STEPSIZE WHICH MEETS STABILITY CRITERION OF THE DISPERSION TERM
 =  20.29    (WHEN MIN. R.F.=1)  AT K=   1, I=   1, J=  31


     1 CALLS TO GCG PACKAGE FOR TRANSPORT TIME STEP   1 IN FLOW TIME STEP  55 STRESS PERIOD   1
     6 TOTAL ITERATIONS

 NO OUTPUT CONTROL FOR STRESS PERIOD    1   TIME STEP  55
 
 SOLVING FOR HEAD 
 FLOW MODEL IS TRANSIENT
 FLOW MODEL CONTAINS CONSTANT-HEAD CELLS


 MAXIMUM STEPSIZE DURING WHICH ANY PARTICLE CANNOT MOVE MORE THAN ONE CELL
 =  4.405    (WHEN MIN. R.F.=1)  AT K=   4, I=   1, J=  48

 MAXIMUM STEPSIZE WHICH MEETS STABILITY CRITERION OF THE ADVECTION TERM
 (FOR PURE FINITE-DIFFERENCE OPTION, MIXELM=0) 
 =  3.661    (WHEN MIN. R.F.=1)  AT K=   2, I=   1, J=  60


 TOTAL NUMBER OF POINT SOURCES/SINKS PRESENT IN THE FLOW MODEL =    62

 MAXIMUM STEPSIZE WHICH MEETS STABILITY CRITERION OF THE SINK & SOURCE TERM
 =  92.68    (WHEN MIN. R.F.=1)  AT K=   2, I=   1, J= 120

 MAXIMUM STEPSIZE WHICH MEETS STABILITY CRITERION OF THE DISPERSION TERM
 =  20.29    (WHEN MIN. R.F.=1)  AT K=   1, I=   1, J=  31
     1 CALLS TO GCG PACKAGE FOR TRANSPORT TIME STEP   2 IN FLOW TIME STEP  55 STRESS PERIOD   1
     6 TOTAL ITERATIONS
 
 SOLVING FOR HEAD 
 FLOW MODEL IS TRANSIENT
 FLOW MODEL CONTAINS CONSTANT-HEAD CELLS


 MAXIMUM STEPSIZE DURING WHICH ANY PARTICLE CANNOT MOVE MORE THAN ONE CELL
 =  4.373    (WHEN MIN. R.F.=1)  AT K=   5, I=   1, J=  48

 MAXIMUM STEPSIZE WHICH MEETS STABILITY CRITERION OF THE ADVECTION TERM
 (FOR PURE FINITE-DIFFERENCE OPTION, MIXELM=0) 
 =  3.659    (WHEN MIN. R.F.=1)  AT K=   3, I=   1, J=  48


 TOTAL NUMBER OF POINT SOURCES/SINKS PRESENT IN THE FLOW MODEL =    62

 MAXIMUM STEPSIZE WHICH MEETS STABILITY CRITERION OF THE SINK & SOURCE TERM
 =  91.03    (WHEN MIN. R.F.=1)  AT K=   2, I=   1, J= 120

 MAXIMUM STEPSIZE WHICH MEETS STABILITY CRITERION OF THE DISPERSION TERM
 =  20.29    (WHEN MIN. R.F.=1)  AT K=   1, I=   1, J=  31
     1 CALLS TO GCG PACKAGE FOR TRANSPORT TIME STEP   3 IN FLOW TIME STEP  55 STRESS PERIOD   1
     6 TOTAL ITERATIONS
 
 SOLVING FOR HEAD 
 FLOW MODEL IS TRANSIENT
 FLOW MODEL CONTAINS CONSTANT-HEAD CELLS


 MAXIMUM STEPSIZE DURING WHICH ANY PARTICLE CANNOT MOVE MORE THAN ONE CELL
 =  4.332    (WHEN MIN. R.F.=1)  AT K=   5, I=   1, J=  48

 MAXIMUM STEPSIZE WHICH MEETS STABILITY CRITERION OF THE ADVECTION TERM
 (FOR PURE FINITE-DIFFERENCE OPTION, MIXELM=0) 
 =  3.558    (WHEN MIN. R.F.=1)  AT K=   4, I=   1, J=  48


 TOTAL NUMBER OF POINT SOURCES/SINKS PRESENT IN THE FLOW MODEL =    62

 MAXIMUM STEPSIZE WHICH MEETS STABILITY CRITERION OF THE SINK & SOURCE TERM
 =  89.88    (WHEN MIN. R.F.=1)  AT K=   2, I=   1, J= 120

 MAXIMUM STEPSIZE WHICH MEETS STABILITY CRITERION OF THE DISPERSION TERM
 =  20.29    (WHEN MIN. R.F.=1)  AT K=   1, I=   1, J=  31
     1 CALLS TO GCG PACKAGE FOR TRANSPORT TIME STEP   4 IN FLOW TIME STEP  55 STRESS PERIOD   1
     5 TOTAL ITERATIONS
  MAXIMUM CONCENTRATION CHANGES FOR EACH ITERATION:
  MAX. CHANGE LAYER,ROW,COL MAX. CHANGE LAYER,ROW,COL MAX. CHANGE LAYER,ROW,COL MAX. CHANGE LAYER,ROW,COL MAX. CHANGE LAYER,ROW,COL
 ------------------------------------------------------------------------------------------------------------------------------------
   0.2963E-01 (  2,  1, 62)  0.8005E-03 (  2,  1, 62)  0.3250E-04 (  2,  1, 78)  0.1242E-05 (  3,  1, 78)  0.3940E-07 (  3,  1, 64)


                                          ================================================
                                                         FROM TIME =   550.00     TO    560.00    

 
 SOLVING FOR HEAD 
 FLOW MODEL IS TRANSIENT
 FLOW MODEL CONTAINS CONSTANT-HEAD CELLS


 MAXIMUM STEPSIZE DURING WHICH ANY PARTICLE CANNOT MOVE MORE THAN ONE CELL
 =  4.331    (WHEN MIN. R.F.=1)  AT K=   5, I=   1, J=  48

 MAXIMUM STEPSIZE WHICH MEETS STABILITY CRITERION OF THE ADVECTION TERM
 (FOR PURE FINITE-DIFFERENCE OPTION, MIXELM=0) 
 =  3.509    (WHEN MIN. R.F.=1)  AT K=   4, I=   1, J=  48


 TOTAL NUMBER OF POINT SOURCES/SINKS PRESENT IN THE FLOW MODEL =    62

 MAXIMUM STEPSIZE WHICH MEETS STABILITY CRITERION OF THE SINK & SOURCE TERM
 =  90.14    (WHEN MIN. R.F.=1)  AT K=   2, I=   1, J= 120

 MAXIMUM STEPSIZE WHICH MEETS STABILITY CRITERION OF THE DISPERSION TERM
 =  20.29    (WHEN MIN. R.F.=1)  AT K=   1, I=   1, J=  31


     1 CALLS TO GCG PACKAGE FOR TRANSPORT TIME STEP   1 IN FLOW TIME STEP  56 STRESS PERIOD   1
     6 TOTAL ITERATIONS

 NO OUTPUT CONTROL FOR STRESS PERIOD    1   TIME STEP  56
 
 SOLVING FOR HEAD 
 FLOW MODEL IS TRANSIENT
 FLOW MODEL CONTAINS CONSTANT-HEAD CELLS


 MAXIMUM STEPSIZE DURING WHICH ANY PARTICLE CANNOT MOVE MORE THAN ONE CELL
 =  4.352    (WHEN MIN. R.F.=1)  AT K=   5, I=   1, J=  48

 MAXIMUM STEPSIZE WHICH MEETS STABILITY CRITERION OF THE ADVECTION TERM
 (FOR PURE FINITE-DIFFERENCE OPTION, MIXELM=0) 
 =  3.465    (WHEN MIN. R.F.=1)  AT K=   4, I=   1, J=  48


 TOTAL NUMBER OF POINT SOURCES/SINKS PRESENT IN THE FLOW MODEL =    62

 MAXIMUM STEPSIZE WHICH MEETS STABILITY CRITERION OF THE SINK & SOURCE TERM
 =  87.37    (WHEN MIN. R.F.=1)  AT K=   2, I=   1, J= 120

 MAXIMUM STEPSIZE WHICH MEETS STABILITY CRITERION OF THE DISPERSION TERM
 =  20.29    (WHEN MIN. R.F.=1)  AT K=   1, I=   1, J=  31
     1 CALLS TO GCG PACKAGE FOR TRANSPORT TIME STEP   2 IN FLOW TIME STEP  56 STRESS PERIOD   1
     6 TOTAL ITERATIONS
 
 SOLVING FOR HEAD 
 FLOW MODEL IS TRANSIENT
 FLOW MODEL CONTAINS CONSTANT-HEAD CELLS


 MAXIMUM STEPSIZE DURING WHICH ANY PARTICLE CANNOT MOVE MORE THAN ONE CELL
 =  4.398    (WHEN MIN. R.F.=1)  AT K=   5, I=   1, J=  48

 MAXIMUM STEPSIZE WHICH MEETS STABILITY CRITERION OF THE ADVECTION TERM
 (FOR PURE FINITE-DIFFERENCE OPTION, MIXELM=0) 
 =  3.446    (WHEN MIN. R.F.=1)  AT K=   4, I=   1, J=  48


 TOTAL NUMBER OF POINT SOURCES/SINKS PRESENT IN THE FLOW MODEL =    62

 MAXIMUM STEPSIZE WHICH MEETS STABILITY CRITERION OF THE SINK & SOURCE TERM
 =  85.15    (WHEN MIN. R.F.=1)  AT K=   2, I=   1, J= 120

 MAXIMUM STEPSIZE WHICH MEETS STABILITY CRITERION OF THE DISPERSION TERM
 =  20.29    (WHEN MIN. R.F.=1)  AT K=   1, I=   1, J=  31
     1 CALLS TO GCG PACKAGE FOR TRANSPORT TIME STEP   3 IN FLOW TIME STEP  56 STRESS PERIOD   1
     6 TOTAL ITERATIONS
 
 SOLVING FOR HEAD 
 FLOW MODEL IS TRANSIENT
 FLOW MODEL CONTAINS CONSTANT-HEAD CELLS


 MAXIMUM STEPSIZE DURING WHICH ANY PARTICLE CANNOT MOVE MORE THAN ONE CELL
 =  4.417    (WHEN MIN. R.F.=1)  AT K=   4, I=   1, J=  60

 MAXIMUM STEPSIZE WHICH MEETS STABILITY CRITERION OF THE ADVECTION TERM
 (FOR PURE FINITE-DIFFERENCE OPTION, MIXELM=0) 
 =  3.354    (WHEN MIN. R.F.=1)  AT K=   3, I=   1, J=  74


 TOTAL NUMBER OF POINT SOURCES/SINKS PRESENT IN THE FLOW MODEL =    62

 MAXIMUM STEPSIZE WHICH MEETS STABILITY CRITERION OF THE SINK & SOURCE TERM
 =  82.94    (WHEN MIN. R.F.=1)  AT K=   2, I=   1, J= 120

 MAXIMUM STEPSIZE WHICH MEETS STABILITY CRITERION OF THE DISPERSION TERM
 =  20.29    (WHEN MIN. R.F.=1)  AT K=   1, I=   1, J=  31
     1 CALLS TO GCG PACKAGE FOR TRANSPORT TIME STEP   4 IN FLOW TIME STEP  56 STRESS PERIOD   1
     5 TOTAL ITERATIONS
  MAXIMUM CONCENTRATION CHANGES FOR EACH ITERATION:
  MAX. CHANGE LAYER,ROW,COL MAX. CHANGE LAYER,ROW,COL MAX. CHANGE LAYER,ROW,COL MAX. CHANGE LAYER,ROW,COL MAX. CHANGE LAYER,ROW,COL
 ------------------------------------------------------------------------------------------------------------------------------------
   0.3503E-01 (  2,  1, 62)  0.1109E-02 (  2,  1, 62)  0.4403E-04 (  2,  1, 77)  0.2236E-05 (  3,  1, 63)  0.8406E-07 (  4,  1, 62)


                                          ================================================
                                                         FROM TIME =   560.00     TO    570.00    

 
 SOLVING FOR HEAD 
 FLOW MODEL IS TRANSIENT
 FLOW MODEL CONTAINS CONSTANT-HEAD CELLS


 MAXIMUM STEPSIZE DURING WHICH ANY PARTICLE CANNOT MOVE MORE THAN ONE CELL
 =  4.177    (WHEN MIN. R.F.=1)  AT K=   4, I=   1, J=  74

 MAXIMUM STEPSIZE WHICH MEETS STABILITY CRITERION OF THE ADVECTION TERM
 (FOR PURE FINITE-DIFFERENCE OPTION, MIXELM=0) 
 =  3.214    (WHEN MIN. R.F.=1)  AT K=   3, I=   1, J=  74


 TOTAL NUMBER OF POINT SOURCES/SINKS PRESENT IN THE FLOW MODEL =    62

 MAXIMUM STEPSIZE WHICH MEETS STABILITY CRITERION OF THE SINK & SOURCE TERM
 =  82.67    (WHEN MIN. R.F.=1)  AT K=   2, I=   1, J= 120

 MAXIMUM STEPSIZE WHICH MEETS STABILITY CRITERION OF THE DISPERSION TERM
 =  20.29    (WHEN MIN. R.F.=1)  AT K=   1, I=   1, J=  31


     1 CALLS TO GCG PACKAGE FOR TRANSPORT TIME STEP   1 IN FLOW TIME STEP  57 STRESS PERIOD   1
     6 TOTAL ITERATIONS

 NO OUTPUT CONTROL FOR STRESS PERIOD    1   TIME STEP  57
 
 SOLVING FOR HEAD 
 FLOW MODEL IS TRANSIENT
 FLOW MODEL CONTAINS CONSTANT-HEAD CELLS


 MAXIMUM STEPSIZE DURING WHICH ANY PARTICLE CANNOT MOVE MORE THAN ONE CELL
 =  3.893    (WHEN MIN. R.F.=1)  AT K=   4, I=   1, J=  74

 MAXIMUM STEPSIZE WHICH MEETS STABILITY CRITERION OF THE ADVECTION TERM
 (FOR PURE FINITE-DIFFERENCE OPTION, MIXELM=0) 
 =  3.076    (WHEN MIN. R.F.=1)  AT K=   3, I=   1, J=  74


 TOTAL NUMBER OF POINT SOURCES/SINKS PRESENT IN THE FLOW MODEL =    62

 MAXIMUM STEPSIZE WHICH MEETS STABILITY CRITERION OF THE SINK & SOURCE TERM
 =  81.11    (WHEN MIN. R.F.=1)  AT K=   2, I=   1, J= 120

 MAXIMUM STEPSIZE WHICH MEETS STABILITY CRITERION OF THE DISPERSION TERM
 =  20.29    (WHEN MIN. R.F.=1)  AT K=   1, I=   1, J=  31
     1 CALLS TO GCG PACKAGE FOR TRANSPORT TIME STEP   2 IN FLOW TIME STEP  57 STRESS PERIOD   1
     6 TOTAL ITERATIONS
 
 SOLVING FOR HEAD 
 FLOW MODEL IS TRANSIENT
 FLOW MODEL CONTAINS CONSTANT-HEAD CELLS


 MAXIMUM STEPSIZE DURING WHICH ANY PARTICLE CANNOT MOVE MORE THAN ONE CELL
 =  3.721    (WHEN MIN. R.F.=1)  AT K=   4, I=   1, J=  74

 MAXIMUM STEPSIZE WHICH MEETS STABILITY CRITERION OF THE ADVECTION TERM
 (FOR PURE FINITE-DIFFERENCE OPTION, MIXELM=0) 
 =  3.011    (WHEN MIN. R.F.=1)  AT K=   2, I=   1, J=  74


 TOTAL NUMBER OF POINT SOURCES/SINKS PRESENT IN THE FLOW MODEL =    62

 MAXIMUM STEPSIZE WHICH MEETS STABILITY CRITERION OF THE SINK & SOURCE TERM
 =  80.37    (WHEN MIN. R.F.=1)  AT K=   2, I=   1, J= 120

 MAXIMUM STEPSIZE WHICH MEETS STABILITY CRITERION OF THE DISPERSION TERM
 =  20.29    (WHEN MIN. R.F.=1)  AT K=   1, I=   1, J=  31
     1 CALLS TO GCG PACKAGE FOR TRANSPORT TIME STEP   3 IN FLOW TIME STEP  57 STRESS PERIOD   1
     6 TOTAL ITERATIONS
 
 SOLVING FOR HEAD 
 FLOW MODEL IS TRANSIENT
 FLOW MODEL CONTAINS CONSTANT-HEAD CELLS


 MAXIMUM STEPSIZE DURING WHICH ANY PARTICLE CANNOT MOVE MORE THAN ONE CELL
 =  3.654    (WHEN MIN. R.F.=1)  AT K=   4, I=   1, J=  74

 MAXIMUM STEPSIZE WHICH MEETS STABILITY CRITERION OF THE ADVECTION TERM
 (FOR PURE FINITE-DIFFERENCE OPTION, MIXELM=0) 
 =  2.938    (WHEN MIN. R.F.=1)  AT K=   2, I=   1, J=  74


 TOTAL NUMBER OF POINT SOURCES/SINKS PRESENT IN THE FLOW MODEL =    62

 MAXIMUM STEPSIZE WHICH MEETS STABILITY CRITERION OF THE SINK & SOURCE TERM
 =  79.57    (WHEN MIN. R.F.=1)  AT K=   2, I=   1, J= 120

 MAXIMUM STEPSIZE WHICH MEETS STABILITY CRITERION OF THE DISPERSION TERM
 =  20.29    (WHEN MIN. R.F.=1)  AT K=   1, I=   1, J=  31
     1 CALLS TO GCG PACKAGE FOR TRANSPORT TIME STEP   4 IN FLOW TIME STEP  57 STRESS PERIOD   1
     6 TOTAL ITERATIONS
 
 SOLVING FOR HEAD 
 FLOW MODEL IS TRANSIENT
 FLOW MODEL CONTAINS CONSTANT-HEAD CELLS


 MAXIMUM STEPSIZE DURING WHICH ANY PARTICLE CANNOT MOVE MORE THAN ONE CELL
 =  3.657    (WHEN MIN. R.F.=1)  AT K=   4, I=   1, J=  74

 MAXIMUM STEPSIZE WHICH MEETS STABILITY CRITERION OF THE ADVECTION TERM
 (FOR PURE FINITE-DIFFERENCE OPTION, MIXELM=0) 
 =  2.915    (WHEN MIN. R.F.=1)  AT K=   2, I=   1, J=  74


 TOTAL NUMBER OF POINT SOURCES/SINKS PRESENT IN THE FLOW MODEL =    62

 MAXIMUM STEPSIZE WHICH MEETS STABILITY CRITERION OF THE SINK & SOURCE TERM
 =  77.78    (WHEN MIN. R.F.=1)  AT K=   2, I=   1, J= 120

 MAXIMUM STEPSIZE WHICH MEETS STABILITY CRITERION OF THE DISPERSION TERM
 =  20.29    (WHEN MIN. R.F.=1)  AT K=   1, I=   1, J=  31
     1 CALLS TO GCG PACKAGE FOR TRANSPORT TIME STEP   5 IN FLOW TIME STEP  57 STRESS PERIOD   1
     4 TOTAL ITERATIONS
  MAXIMUM CONCENTRATION CHANGES FOR EACH ITERATION:
  MAX. CHANGE LAYER,ROW,COL MAX. CHANGE LAYER,ROW,COL MAX. CHANGE LAYER,ROW,COL MAX. CHANGE LAYER,ROW,COL MAX. CHANGE LAYER,ROW,COL
 ------------------------------------------------------------------------------------------------------------------------------------
   0.8399E-02 (  2,  1, 62)  0.7005E-04 (  2,  1, 62)  0.6555E-06 (  3,  1, 61)  0.9094E-08 (  3,  1, 63)


                                          ================================================
                                                         FROM TIME =   570.00     TO    580.00    

 
 SOLVING FOR HEAD 
 FLOW MODEL IS TRANSIENT
 FLOW MODEL CONTAINS CONSTANT-HEAD CELLS


 MAXIMUM STEPSIZE DURING WHICH ANY PARTICLE CANNOT MOVE MORE THAN ONE CELL
 =  3.661    (WHEN MIN. R.F.=1)  AT K=   4, I=   1, J=  74

 MAXIMUM STEPSIZE WHICH MEETS STABILITY CRITERION OF THE ADVECTION TERM
 (FOR PURE FINITE-DIFFERENCE OPTION, MIXELM=0) 
 =  2.920    (WHEN MIN. R.F.=1)  AT K=   2, I=   1, J=  74


 TOTAL NUMBER OF POINT SOURCES/SINKS PRESENT IN THE FLOW MODEL =    62

 MAXIMUM STEPSIZE WHICH MEETS STABILITY CRITERION OF THE SINK & SOURCE TERM
 =  79.62    (WHEN MIN. R.F.=1)  AT K=   2, I=   1, J= 120

 MAXIMUM STEPSIZE WHICH MEETS STABILITY CRITERION OF THE DISPERSION TERM
 =  20.29    (WHEN MIN. R.F.=1)  AT K=   1, I=   1, J=  31


     1 CALLS TO GCG PACKAGE FOR TRANSPORT TIME STEP   1 IN FLOW TIME STEP  58 STRESS PERIOD   1
     6 TOTAL ITERATIONS

 NO OUTPUT CONTROL FOR STRESS PERIOD    1   TIME STEP  58
 
 SOLVING FOR HEAD 
 FLOW MODEL IS TRANSIENT
 FLOW MODEL CONTAINS CONSTANT-HEAD CELLS


 MAXIMUM STEPSIZE DURING WHICH ANY PARTICLE CANNOT MOVE MORE THAN ONE CELL
 =  3.686    (WHEN MIN. R.F.=1)  AT K=   5, I=   1, J=  74

 MAXIMUM STEPSIZE WHICH MEETS STABILITY CRITERION OF THE ADVECTION TERM
 (FOR PURE FINITE-DIFFERENCE OPTION, MIXELM=0) 
 =  2.954    (WHEN MIN. R.F.=1)  AT K=   2, I=   1, J=  74


 TOTAL NUMBER OF POINT SOURCES/SINKS PRESENT IN THE FLOW MODEL =    62

 MAXIMUM STEPSIZE WHICH MEETS STABILITY CRITERION OF THE SINK & SOURCE TERM
 =  77.03    (WHEN MIN. R.F.=1)  AT K=   2, I=   1, J= 120

 MAXIMUM STEPSIZE WHICH MEETS STABILITY CRITERION OF THE DISPERSION TERM
 =  20.29    (WHEN MIN. R.F.=1)  AT K=   1, I=   1, J=  31
     1 CALLS TO GCG PACKAGE FOR TRANSPORT TIME STEP   2 IN FLOW TIME STEP  58 STRESS PERIOD   1
     6 TOTAL ITERATIONS
 
 SOLVING FOR HEAD 
 FLOW MODEL IS TRANSIENT
 FLOW MODEL CONTAINS CONSTANT-HEAD CELLS


 MAXIMUM STEPSIZE DURING WHICH ANY PARTICLE CANNOT MOVE MORE THAN ONE CELL
 =  3.749    (WHEN MIN. R.F.=1)  AT K=   5, I=   1, J=  74

 MAXIMUM STEPSIZE WHICH MEETS STABILITY CRITERION OF THE ADVECTION TERM
 (FOR PURE FINITE-DIFFERENCE OPTION, MIXELM=0) 
 =  3.012    (WHEN MIN. R.F.=1)  AT K=   2, I=   1, J=  80


 TOTAL NUMBER OF POINT SOURCES/SINKS PRESENT IN THE FLOW MODEL =    62

 MAXIMUM STEPSIZE WHICH MEETS STABILITY CRITERION OF THE SINK & SOURCE TERM
 =  77.05    (WHEN MIN. R.F.=1)  AT K=   2, I=   1, J= 120

 MAXIMUM STEPSIZE WHICH MEETS STABILITY CRITERION OF THE DISPERSION TERM
 =  20.29    (WHEN MIN. R.F.=1)  AT K=   1, I=   1, J=  31
     1 CALLS TO GCG PACKAGE FOR TRANSPORT TIME STEP   3 IN FLOW TIME STEP  58 STRESS PERIOD   1
     6 TOTAL ITERATIONS
 
 SOLVING FOR HEAD 
 FLOW MODEL IS TRANSIENT
 FLOW MODEL CONTAINS CONSTANT-HEAD CELLS


 MAXIMUM STEPSIZE DURING WHICH ANY PARTICLE CANNOT MOVE MORE THAN ONE CELL
 =  3.846    (WHEN MIN. R.F.=1)  AT K=   6, I=   1, J=  74

 MAXIMUM STEPSIZE WHICH MEETS STABILITY CRITERION OF THE ADVECTION TERM
 (FOR PURE FINITE-DIFFERENCE OPTION, MIXELM=0) 
 =  3.041    (WHEN MIN. R.F.=1)  AT K=   2, I=   1, J=  47


 TOTAL NUMBER OF POINT SOURCES/SINKS PRESENT IN THE FLOW MODEL =    62

 MAXIMUM STEPSIZE WHICH MEETS STABILITY CRITERION OF THE SINK & SOURCE TERM
 =  77.04    (WHEN MIN. R.F.=1)  AT K=   2, I=   1, J= 120

 MAXIMUM STEPSIZE WHICH MEETS STABILITY CRITERION OF THE DISPERSION TERM
 =  20.29    (WHEN MIN. R.F.=1)  AT K=   1, I=   1, J=  31
     1 CALLS TO GCG PACKAGE FOR TRANSPORT TIME STEP   4 IN FLOW TIME STEP  58 STRESS PERIOD   1
     6 TOTAL ITERATIONS
 
 SOLVING FOR HEAD 
 FLOW MODEL IS TRANSIENT
 FLOW MODEL CONTAINS CONSTANT-HEAD CELLS


 MAXIMUM STEPSIZE DURING WHICH ANY PARTICLE CANNOT MOVE MORE THAN ONE CELL
 =  3.958    (WHEN MIN. R.F.=1)  AT K=   6, I=   1, J=  74

 MAXIMUM STEPSIZE WHICH MEETS STABILITY CRITERION OF THE ADVECTION TERM
 (FOR PURE FINITE-DIFFERENCE OPTION, MIXELM=0) 
 =  3.094    (WHEN MIN. R.F.=1)  AT K=   2, I=   1, J=  47


 TOTAL NUMBER OF POINT SOURCES/SINKS PRESENT IN THE FLOW MODEL =    62

 MAXIMUM STEPSIZE WHICH MEETS STABILITY CRITERION OF THE SINK & SOURCE TERM
 =  76.23    (WHEN MIN. R.F.=1)  AT K=   2, I=   1, J= 120

 MAXIMUM STEPSIZE WHICH MEETS STABILITY CRITERION OF THE DISPERSION TERM
 =  20.29    (WHEN MIN. R.F.=1)  AT K=   1, I=   1, J=  31
     1 CALLS TO GCG PACKAGE FOR TRANSPORT TIME STEP   5 IN FLOW TIME STEP  58 STRESS PERIOD   1
     5 TOTAL ITERATIONS
  MAXIMUM CONCENTRATION CHANGES FOR EACH ITERATION:
  MAX. CHANGE LAYER,ROW,COL MAX. CHANGE LAYER,ROW,COL MAX. CHANGE LAYER,ROW,COL MAX. CHANGE LAYER,ROW,COL MAX. CHANGE LAYER,ROW,COL
 ------------------------------------------------------------------------------------------------------------------------------------
   0.1927E-01 (  2,  1, 62)  0.3530E-03 (  2,  1, 79)  0.1160E-04 (  3,  1, 79)  0.2530E-06 (  4,  1, 79)  0.6164E-08 (  4,  1, 80)


                                          ================================================
                                                         FROM TIME =   580.00     TO    590.00    

 
 SOLVING FOR HEAD 
 FLOW MODEL IS TRANSIENT
 FLOW MODEL CONTAINS CONSTANT-HEAD CELLS


 MAXIMUM STEPSIZE DURING WHICH ANY PARTICLE CANNOT MOVE MORE THAN ONE CELL
 =  4.030    (WHEN MIN. R.F.=1)  AT K=   7, I=   1, J=  74

 MAXIMUM STEPSIZE WHICH MEETS STABILITY CRITERION OF THE ADVECTION TERM
 (FOR PURE FINITE-DIFFERENCE OPTION, MIXELM=0) 
 =  3.085    (WHEN MIN. R.F.=1)  AT K=   2, I=   1, J=  79


 TOTAL NUMBER OF POINT SOURCES/SINKS PRESENT IN THE FLOW MODEL =    62

 MAXIMUM STEPSIZE WHICH MEETS STABILITY CRITERION OF THE SINK & SOURCE TERM
 =  78.30    (WHEN MIN. R.F.=1)  AT K=   2, I=   1, J= 120

 MAXIMUM STEPSIZE WHICH MEETS STABILITY CRITERION OF THE DISPERSION TERM
 =  20.29    (WHEN MIN. R.F.=1)  AT K=   1, I=   1, J=  31


     1 CALLS TO GCG PACKAGE FOR TRANSPORT TIME STEP   1 IN FLOW TIME STEP  59 STRESS PERIOD   1
     6 TOTAL ITERATIONS

 NO OUTPUT CONTROL FOR STRESS PERIOD    1   TIME STEP  59
 
 SOLVING FOR HEAD 
 FLOW MODEL IS TRANSIENT
 FLOW MODEL CONTAINS CONSTANT-HEAD CELLS


 MAXIMUM STEPSIZE DURING WHICH ANY PARTICLE CANNOT MOVE MORE THAN ONE CELL
 =  4.086    (WHEN MIN. R.F.=1)  AT K=   5, I=   1, J=  48

 MAXIMUM STEPSIZE WHICH MEETS STABILITY CRITERION OF THE ADVECTION TERM
 (FOR PURE FINITE-DIFFERENCE OPTION, MIXELM=0) 
 =  2.860    (WHEN MIN. R.F.=1)  AT K=   2, I=   1, J=  79


 TOTAL NUMBER OF POINT SOURCES/SINKS PRESENT IN THE FLOW MODEL =    62

 MAXIMUM STEPSIZE WHICH MEETS STABILITY CRITERION OF THE SINK & SOURCE TERM
 =  75.79    (WHEN MIN. R.F.=1)  AT K=   2, I=   1, J= 120

 MAXIMUM STEPSIZE WHICH MEETS STABILITY CRITERION OF THE DISPERSION TERM
 =  20.29    (WHEN MIN. R.F.=1)  AT K=   1, I=   1, J=  31
     1 CALLS TO GCG PACKAGE FOR TRANSPORT TIME STEP   2 IN FLOW TIME STEP  59 STRESS PERIOD   1
     6 TOTAL ITERATIONS
 
 SOLVING FOR HEAD 
 FLOW MODEL IS TRANSIENT
 FLOW MODEL CONTAINS CONSTANT-HEAD CELLS


 MAXIMUM STEPSIZE DURING WHICH ANY PARTICLE CANNOT MOVE MORE THAN ONE CELL
 =  4.065    (WHEN MIN. R.F.=1)  AT K=   6, I=   1, J=  48

 MAXIMUM STEPSIZE WHICH MEETS STABILITY CRITERION OF THE ADVECTION TERM
 (FOR PURE FINITE-DIFFERENCE OPTION, MIXELM=0) 
 =  2.788    (WHEN MIN. R.F.=1)  AT K=   2, I=   1, J=  79


 TOTAL NUMBER OF POINT SOURCES/SINKS PRESENT IN THE FLOW MODEL =    62

 MAXIMUM STEPSIZE WHICH MEETS STABILITY CRITERION OF THE SINK & SOURCE TERM
 =  76.17    (WHEN MIN. R.F.=1)  AT K=   2, I=   1, J= 120

 MAXIMUM STEPSIZE WHICH MEETS STABILITY CRITERION OF THE DISPERSION TERM
 =  20.29    (WHEN MIN. R.F.=1)  AT K=   1, I=   1, J=  31
     1 CALLS TO GCG PACKAGE FOR TRANSPORT TIME STEP   3 IN FLOW TIME STEP  59 STRESS PERIOD   1
     6 TOTAL ITERATIONS
 
 SOLVING FOR HEAD 
 FLOW MODEL IS TRANSIENT
 FLOW MODEL CONTAINS CONSTANT-HEAD CELLS


 MAXIMUM STEPSIZE DURING WHICH ANY PARTICLE CANNOT MOVE MORE THAN ONE CELL
 =  4.072    (WHEN MIN. R.F.=1)  AT K=   7, I=   1, J=  48

 MAXIMUM STEPSIZE WHICH MEETS STABILITY CRITERION OF THE ADVECTION TERM
 (FOR PURE FINITE-DIFFERENCE OPTION, MIXELM=0) 
 =  2.843    (WHEN MIN. R.F.=1)  AT K=   2, I=   1, J=  79


 TOTAL NUMBER OF POINT SOURCES/SINKS PRESENT IN THE FLOW MODEL =    62

 MAXIMUM STEPSIZE WHICH MEETS STABILITY CRITERION OF THE SINK & SOURCE TERM
 =  77.55    (WHEN MIN. R.F.=1)  AT K=   2, I=   1, J= 120

 MAXIMUM STEPSIZE WHICH MEETS STABILITY CRITERION OF THE DISPERSION TERM
 =  20.29    (WHEN MIN. R.F.=1)  AT K=   1, I=   1, J=  31
     1 CALLS TO GCG PACKAGE FOR TRANSPORT TIME STEP   4 IN FLOW TIME STEP  59 STRESS PERIOD   1
     6 TOTAL ITERATIONS
 
 SOLVING FOR HEAD 
 FLOW MODEL IS TRANSIENT
 FLOW MODEL CONTAINS CONSTANT-HEAD CELLS


 MAXIMUM STEPSIZE DURING WHICH ANY PARTICLE CANNOT MOVE MORE THAN ONE CELL
 =  4.069    (WHEN MIN. R.F.=1)  AT K=   7, I=   1, J=  48

 MAXIMUM STEPSIZE WHICH MEETS STABILITY CRITERION OF THE ADVECTION TERM
 (FOR PURE FINITE-DIFFERENCE OPTION, MIXELM=0) 
 =  3.026    (WHEN MIN. R.F.=1)  AT K=   2, I=   1, J=  79


 TOTAL NUMBER OF POINT SOURCES/SINKS PRESENT IN THE FLOW MODEL =    62

 MAXIMUM STEPSIZE WHICH MEETS STABILITY CRITERION OF THE SINK & SOURCE TERM
 =  77.33    (WHEN MIN. R.F.=1)  AT K=   2, I=   1, J= 120

 MAXIMUM STEPSIZE WHICH MEETS STABILITY CRITERION OF THE DISPERSION TERM
 =  20.29    (WHEN MIN. R.F.=1)  AT K=   1, I=   1, J=  31
     1 CALLS TO GCG PACKAGE FOR TRANSPORT TIME STEP   5 IN FLOW TIME STEP  59 STRESS PERIOD   1
     5 TOTAL ITERATIONS
  MAXIMUM CONCENTRATION CHANGES FOR EACH ITERATION:
  MAX. CHANGE LAYER,ROW,COL MAX. CHANGE LAYER,ROW,COL MAX. CHANGE LAYER,ROW,COL MAX. CHANGE LAYER,ROW,COL MAX. CHANGE LAYER,ROW,COL
 ------------------------------------------------------------------------------------------------------------------------------------
   0.1942E-01 (  2,  1, 80)  0.3428E-03 (  2,  1, 78)  0.1070E-04 (  3,  1, 78)  0.3288E-06 (  3,  1, 76)  0.6999E-08 (  4,  1, 76)


                                          ================================================
                                                         FROM TIME =   590.00     TO    600.00    

 
 SOLVING FOR HEAD 
 FLOW MODEL IS TRANSIENT
 FLOW MODEL CONTAINS CONSTANT-HEAD CELLS


 MAXIMUM STEPSIZE DURING WHICH ANY PARTICLE CANNOT MOVE MORE THAN ONE CELL
 =  4.077    (WHEN MIN. R.F.=1)  AT K=   7, I=   1, J=  48

 MAXIMUM STEPSIZE WHICH MEETS STABILITY CRITERION OF THE ADVECTION TERM
 (FOR PURE FINITE-DIFFERENCE OPTION, MIXELM=0) 
 =  3.142    (WHEN MIN. R.F.=1)  AT K=   2, I=   1, J=  42


 TOTAL NUMBER OF POINT SOURCES/SINKS PRESENT IN THE FLOW MODEL =    62

 MAXIMUM STEPSIZE WHICH MEETS STABILITY CRITERION OF THE SINK & SOURCE TERM
 =  81.04    (WHEN MIN. R.F.=1)  AT K=   2, I=   1, J= 120

 MAXIMUM STEPSIZE WHICH MEETS STABILITY CRITERION OF THE DISPERSION TERM
 =  20.29    (WHEN MIN. R.F.=1)  AT K=   1, I=   1, J=  31


     1 CALLS TO GCG PACKAGE FOR TRANSPORT TIME STEP   1 IN FLOW TIME STEP  60 STRESS PERIOD   1
     6 TOTAL ITERATIONS

 NO OUTPUT CONTROL FOR STRESS PERIOD    1   TIME STEP  60
 
 SOLVING FOR HEAD 
 FLOW MODEL IS TRANSIENT
 FLOW MODEL CONTAINS CONSTANT-HEAD CELLS


 MAXIMUM STEPSIZE DURING WHICH ANY PARTICLE CANNOT MOVE MORE THAN ONE CELL
 =  4.078    (WHEN MIN. R.F.=1)  AT K=   8, I=   1, J=  48

 MAXIMUM STEPSIZE WHICH MEETS STABILITY CRITERION OF THE ADVECTION TERM
 (FOR PURE FINITE-DIFFERENCE OPTION, MIXELM=0) 
 =  3.022    (WHEN MIN. R.F.=1)  AT K=   2, I=   1, J=  78


 TOTAL NUMBER OF POINT SOURCES/SINKS PRESENT IN THE FLOW MODEL =    62

 MAXIMUM STEPSIZE WHICH MEETS STABILITY CRITERION OF THE SINK & SOURCE TERM
 =  78.72    (WHEN MIN. R.F.=1)  AT K=   2, I=   1, J= 120

 MAXIMUM STEPSIZE WHICH MEETS STABILITY CRITERION OF THE DISPERSION TERM
 =  20.29    (WHEN MIN. R.F.=1)  AT K=   1, I=   1, J=  31
     1 CALLS TO GCG PACKAGE FOR TRANSPORT TIME STEP   2 IN FLOW TIME STEP  60 STRESS PERIOD   1
     6 TOTAL ITERATIONS
 
 SOLVING FOR HEAD 
 FLOW MODEL IS TRANSIENT
 FLOW MODEL CONTAINS CONSTANT-HEAD CELLS


 MAXIMUM STEPSIZE DURING WHICH ANY PARTICLE CANNOT MOVE MORE THAN ONE CELL
 =  4.088    (WHEN MIN. R.F.=1)  AT K=   4, I=   1, J=  48

 MAXIMUM STEPSIZE WHICH MEETS STABILITY CRITERION OF THE ADVECTION TERM
 (FOR PURE FINITE-DIFFERENCE OPTION, MIXELM=0) 
 =  2.876    (WHEN MIN. R.F.=1)  AT K=   2, I=   1, J=  78


 TOTAL NUMBER OF POINT SOURCES/SINKS PRESENT IN THE FLOW MODEL =    62

 MAXIMUM STEPSIZE WHICH MEETS STABILITY CRITERION OF THE SINK & SOURCE TERM
 =  79.94    (WHEN MIN. R.F.=1)  AT K=   2, I=   1, J= 120

 MAXIMUM STEPSIZE WHICH MEETS STABILITY CRITERION OF THE DISPERSION TERM
 =  20.29    (WHEN MIN. R.F.=1)  AT K=   1, I=   1, J=  31
     1 CALLS TO GCG PACKAGE FOR TRANSPORT TIME STEP   3 IN FLOW TIME STEP  60 STRESS PERIOD   1
     6 TOTAL ITERATIONS
 
 SOLVING FOR HEAD 
 FLOW MODEL IS TRANSIENT
 FLOW MODEL CONTAINS CONSTANT-HEAD CELLS


 MAXIMUM STEPSIZE DURING WHICH ANY PARTICLE CANNOT MOVE MORE THAN ONE CELL
 =  4.086    (WHEN MIN. R.F.=1)  AT K=   4, I=   1, J=  48

 MAXIMUM STEPSIZE WHICH MEETS STABILITY CRITERION OF THE ADVECTION TERM
 (FOR PURE FINITE-DIFFERENCE OPTION, MIXELM=0) 
 =  2.855    (WHEN MIN. R.F.=1)  AT K=   2, I=   1, J=  78


 TOTAL NUMBER OF POINT SOURCES/SINKS PRESENT IN THE FLOW MODEL =    62

 MAXIMUM STEPSIZE WHICH MEETS STABILITY CRITERION OF THE SINK & SOURCE TERM
 =  81.65    (WHEN MIN. R.F.=1)  AT K=   2, I=   1, J= 120

 MAXIMUM STEPSIZE WHICH MEETS STABILITY CRITERION OF THE DISPERSION TERM
 =  20.29    (WHEN MIN. R.F.=1)  AT K=   1, I=   1, J=  31
     1 CALLS TO GCG PACKAGE FOR TRANSPORT TIME STEP   4 IN FLOW TIME STEP  60 STRESS PERIOD   1
     5 TOTAL ITERATIONS
 
 SOLVING FOR HEAD 
 FLOW MODEL IS TRANSIENT
 FLOW MODEL CONTAINS CONSTANT-HEAD CELLS


 MAXIMUM STEPSIZE DURING WHICH ANY PARTICLE CANNOT MOVE MORE THAN ONE CELL
 =  4.110    (WHEN MIN. R.F.=1)  AT K=   4, I=   1, J=  48

 MAXIMUM STEPSIZE WHICH MEETS STABILITY CRITERION OF THE ADVECTION TERM
 (FOR PURE FINITE-DIFFERENCE OPTION, MIXELM=0) 
 =  2.931    (WHEN MIN. R.F.=1)  AT K=   2, I=   1, J=  78


 TOTAL NUMBER OF POINT SOURCES/SINKS PRESENT IN THE FLOW MODEL =    62

 MAXIMUM STEPSIZE WHICH MEETS STABILITY CRITERION OF THE SINK & SOURCE TERM
 =  82.34    (WHEN MIN. R.F.=1)  AT K=   2, I=   1, J= 120

 MAXIMUM STEPSIZE WHICH MEETS STABILITY CRITERION OF THE DISPERSION TERM
 =  20.29    (WHEN MIN. R.F.=1)  AT K=   1, I=   1, J=  31
     1 CALLS TO GCG PACKAGE FOR TRANSPORT TIME STEP   5 IN FLOW TIME STEP  60 STRESS PERIOD   1
     5 TOTAL ITERATIONS
  MAXIMUM CONCENTRATION CHANGES FOR EACH ITERATION:
  MAX. CHANGE LAYER,ROW,COL MAX. CHANGE LAYER,ROW,COL MAX. CHANGE LAYER,ROW,COL MAX. CHANGE LAYER,ROW,COL MAX. CHANGE LAYER,ROW,COL
 ------------------------------------------------------------------------------------------------------------------------------------
   0.1676E-01 (  2,  1, 79)  0.2385E-03 (  2,  1, 79)  0.5188E-05 (  2,  1, 80)  0.1342E-06 (  3,  1, 80)  0.2042E-08 (  3,  1, 77)


                                          ================================================
                                                         FROM TIME =   600.00     TO    610.00    

 
 SOLVING FOR HEAD 
 FLOW MODEL IS TRANSIENT
 FLOW MODEL CONTAINS CONSTANT-HEAD CELLS


 MAXIMUM STEPSIZE DURING WHICH ANY PARTICLE CANNOT MOVE MORE THAN ONE CELL
 =  4.132    (WHEN MIN. R.F.=1)  AT K=   4, I=   1, J=  48

 MAXIMUM STEPSIZE WHICH MEETS STABILITY CRITERION OF THE ADVECTION TERM
 (FOR PURE FINITE-DIFFERENCE OPTION, MIXELM=0) 
 =  2.987    (WHEN MIN. R.F.=1)  AT K=   2, I=   1, J=  78


 TOTAL NUMBER OF POINT SOURCES/SINKS PRESENT IN THE FLOW MODEL =    62

 MAXIMUM STEPSIZE WHICH MEETS STABILITY CRITERION OF THE SINK & SOURCE TERM
 =  86.91    (WHEN MIN. R.F.=1)  AT K=   2, I=   1, J= 120

 MAXIMUM STEPSIZE WHICH MEETS STABILITY CRITERION OF THE DISPERSION TERM
 =  20.29    (WHEN MIN. R.F.=1)  AT K=   1, I=   1, J=  31


     1 CALLS TO GCG PACKAGE FOR TRANSPORT TIME STEP   1 IN FLOW TIME STEP  61 STRESS PERIOD   1
     6 TOTAL ITERATIONS

 NO OUTPUT CONTROL FOR STRESS PERIOD    1   TIME STEP  61
 
 SOLVING FOR HEAD 
 FLOW MODEL IS TRANSIENT
 FLOW MODEL CONTAINS CONSTANT-HEAD CELLS


 MAXIMUM STEPSIZE DURING WHICH ANY PARTICLE CANNOT MOVE MORE THAN ONE CELL
 =  4.194    (WHEN MIN. R.F.=1)  AT K=   4, I=   1, J=  48

 MAXIMUM STEPSIZE WHICH MEETS STABILITY CRITERION OF THE ADVECTION TERM
 (FOR PURE FINITE-DIFFERENCE OPTION, MIXELM=0) 
 =  3.036    (WHEN MIN. R.F.=1)  AT K=   2, I=   1, J=  43


 TOTAL NUMBER OF POINT SOURCES/SINKS PRESENT IN THE FLOW MODEL =    62

 MAXIMUM STEPSIZE WHICH MEETS STABILITY CRITERION OF THE SINK & SOURCE TERM
 =  85.92    (WHEN MIN. R.F.=1)  AT K=   2, I=   1, J= 120

 MAXIMUM STEPSIZE WHICH MEETS STABILITY CRITERION OF THE DISPERSION TERM
 =  20.29    (WHEN MIN. R.F.=1)  AT K=   1, I=   1, J=  31
     1 CALLS TO GCG PACKAGE FOR TRANSPORT TIME STEP   2 IN FLOW TIME STEP  61 STRESS PERIOD   1
     6 TOTAL ITERATIONS
 
 SOLVING FOR HEAD 
 FLOW MODEL IS TRANSIENT
 FLOW MODEL CONTAINS CONSTANT-HEAD CELLS


 MAXIMUM STEPSIZE DURING WHICH ANY PARTICLE CANNOT MOVE MORE THAN ONE CELL
 =  4.253    (WHEN MIN. R.F.=1)  AT K=  10, I=   1, J=  48

 MAXIMUM STEPSIZE WHICH MEETS STABILITY CRITERION OF THE ADVECTION TERM
 (FOR PURE FINITE-DIFFERENCE OPTION, MIXELM=0) 
 =  3.153    (WHEN MIN. R.F.=1)  AT K=   2, I=   1, J=  43


 TOTAL NUMBER OF POINT SOURCES/SINKS PRESENT IN THE FLOW MODEL =    62

 MAXIMUM STEPSIZE WHICH MEETS STABILITY CRITERION OF THE SINK & SOURCE TERM
 =  86.79    (WHEN MIN. R.F.=1)  AT K=   2, I=   1, J= 120

 MAXIMUM STEPSIZE WHICH MEETS STABILITY CRITERION OF THE DISPERSION TERM
 =  20.29    (WHEN MIN. R.F.=1)  AT K=   1, I=   1, J=  31
     1 CALLS TO GCG PACKAGE FOR TRANSPORT TIME STEP   3 IN FLOW TIME STEP  61 STRESS PERIOD   1
     6 TOTAL ITERATIONS
 
 SOLVING FOR HEAD 
 FLOW MODEL IS TRANSIENT
 FLOW MODEL CONTAINS CONSTANT-HEAD CELLS


 MAXIMUM STEPSIZE DURING WHICH ANY PARTICLE CANNOT MOVE MORE THAN ONE CELL
 =  4.313    (WHEN MIN. R.F.=1)  AT K=  11, I=   1, J=  48

 MAXIMUM STEPSIZE WHICH MEETS STABILITY CRITERION OF THE ADVECTION TERM
 (FOR PURE FINITE-DIFFERENCE OPTION, MIXELM=0) 
 =  3.059    (WHEN MIN. R.F.=1)  AT K=   2, I=   1, J=  77


 TOTAL NUMBER OF POINT SOURCES/SINKS PRESENT IN THE FLOW MODEL =    62

 MAXIMUM STEPSIZE WHICH MEETS STABILITY CRITERION OF THE SINK & SOURCE TERM
 =  87.66    (WHEN MIN. R.F.=1)  AT K=   2, I=   1, J= 120

 MAXIMUM STEPSIZE WHICH MEETS STABILITY CRITERION OF THE DISPERSION TERM
 =  20.29    (WHEN MIN. R.F.=1)  AT K=   1, I=   1, J=  31
     1 CALLS TO GCG PACKAGE FOR TRANSPORT TIME STEP   4 IN FLOW TIME STEP  61 STRESS PERIOD   1
     6 TOTAL ITERATIONS
 
 SOLVING FOR HEAD 
 FLOW MODEL IS TRANSIENT
 FLOW MODEL CONTAINS CONSTANT-HEAD CELLS


 MAXIMUM STEPSIZE DURING WHICH ANY PARTICLE CANNOT MOVE MORE THAN ONE CELL
 =  4.369    (WHEN MIN. R.F.=1)  AT K=  11, I=   1, J=  48

 MAXIMUM STEPSIZE WHICH MEETS STABILITY CRITERION OF THE ADVECTION TERM
 (FOR PURE FINITE-DIFFERENCE OPTION, MIXELM=0) 
 =  2.944    (WHEN MIN. R.F.=1)  AT K=   2, I=   1, J=  77


 TOTAL NUMBER OF POINT SOURCES/SINKS PRESENT IN THE FLOW MODEL =    62

 MAXIMUM STEPSIZE WHICH MEETS STABILITY CRITERION OF THE SINK & SOURCE TERM
 =  87.12    (WHEN MIN. R.F.=1)  AT K=   2, I=   1, J= 120

 MAXIMUM STEPSIZE WHICH MEETS STABILITY CRITERION OF THE DISPERSION TERM
 =  20.29    (WHEN MIN. R.F.=1)  AT K=   1, I=   1, J=  31
     1 CALLS TO GCG PACKAGE FOR TRANSPORT TIME STEP   5 IN FLOW TIME STEP  61 STRESS PERIOD   1
     4 TOTAL ITERATIONS
  MAXIMUM CONCENTRATION CHANGES FOR EACH ITERATION:
  MAX. CHANGE LAYER,ROW,COL MAX. CHANGE LAYER,ROW,COL MAX. CHANGE LAYER,ROW,COL MAX. CHANGE LAYER,ROW,COL MAX. CHANGE LAYER,ROW,COL
 ------------------------------------------------------------------------------------------------------------------------------------
   0.1513E-01 (  2,  1, 62)  0.2375E-03 (  2,  1, 77)  0.4283E-05 (  3,  1, 77)  0.9120E-07 (  3,  1, 79)


                                          ================================================
                                                         FROM TIME =   610.00     TO    620.00    

 
 SOLVING FOR HEAD 
 FLOW MODEL IS TRANSIENT
 FLOW MODEL CONTAINS CONSTANT-HEAD CELLS


 MAXIMUM STEPSIZE DURING WHICH ANY PARTICLE CANNOT MOVE MORE THAN ONE CELL
 =  4.380    (WHEN MIN. R.F.=1)  AT K=   4, I=   1, J=  60

 MAXIMUM STEPSIZE WHICH MEETS STABILITY CRITERION OF THE ADVECTION TERM
 (FOR PURE FINITE-DIFFERENCE OPTION, MIXELM=0) 
 =  2.935    (WHEN MIN. R.F.=1)  AT K=   2, I=   1, J=  77


 TOTAL NUMBER OF POINT SOURCES/SINKS PRESENT IN THE FLOW MODEL =    62

 MAXIMUM STEPSIZE WHICH MEETS STABILITY CRITERION OF THE SINK & SOURCE TERM
 =  91.49    (WHEN MIN. R.F.=1)  AT K=   2, I=   1, J= 120

 MAXIMUM STEPSIZE WHICH MEETS STABILITY CRITERION OF THE DISPERSION TERM
 =  20.29    (WHEN MIN. R.F.=1)  AT K=   1, I=   1, J=  31


     1 CALLS TO GCG PACKAGE FOR TRANSPORT TIME STEP   1 IN FLOW TIME STEP  62 STRESS PERIOD   1
     6 TOTAL ITERATIONS

 NO OUTPUT CONTROL FOR STRESS PERIOD    1   TIME STEP  62
 
 SOLVING FOR HEAD 
 FLOW MODEL IS TRANSIENT
 FLOW MODEL CONTAINS CONSTANT-HEAD CELLS


 MAXIMUM STEPSIZE DURING WHICH ANY PARTICLE CANNOT MOVE MORE THAN ONE CELL
 =  4.374    (WHEN MIN. R.F.=1)  AT K=   4, I=   1, J=  60

 MAXIMUM STEPSIZE WHICH MEETS STABILITY CRITERION OF THE ADVECTION TERM
 (FOR PURE FINITE-DIFFERENCE OPTION, MIXELM=0) 
 =  2.957    (WHEN MIN. R.F.=1)  AT K=   2, I=   1, J=  77


 TOTAL NUMBER OF POINT SOURCES/SINKS PRESENT IN THE FLOW MODEL =    62

 MAXIMUM STEPSIZE WHICH MEETS STABILITY CRITERION OF THE SINK & SOURCE TERM
 =  90.22    (WHEN MIN. R.F.=1)  AT K=   2, I=   1, J= 120

 MAXIMUM STEPSIZE WHICH MEETS STABILITY CRITERION OF THE DISPERSION TERM
 =  20.29    (WHEN MIN. R.F.=1)  AT K=   1, I=   1, J=  31
     1 CALLS TO GCG PACKAGE FOR TRANSPORT TIME STEP   2 IN FLOW TIME STEP  62 STRESS PERIOD   1
     6 TOTAL ITERATIONS
 
 SOLVING FOR HEAD 
 FLOW MODEL IS TRANSIENT
 FLOW MODEL CONTAINS CONSTANT-HEAD CELLS


 MAXIMUM STEPSIZE DURING WHICH ANY PARTICLE CANNOT MOVE MORE THAN ONE CELL
 =  4.369    (WHEN MIN. R.F.=1)  AT K=   4, I=   1, J=  60

 MAXIMUM STEPSIZE WHICH MEETS STABILITY CRITERION OF THE ADVECTION TERM
 (FOR PURE FINITE-DIFFERENCE OPTION, MIXELM=0) 
 =  3.074    (WHEN MIN. R.F.=1)  AT K=   2, I=   1, J=  77


 TOTAL NUMBER OF POINT SOURCES/SINKS PRESENT IN THE FLOW MODEL =    62

 MAXIMUM STEPSIZE WHICH MEETS STABILITY CRITERION OF THE SINK & SOURCE TERM
 =  90.02    (WHEN MIN. R.F.=1)  AT K=   2, I=   1, J= 120

 MAXIMUM STEPSIZE WHICH MEETS STABILITY CRITERION OF THE DISPERSION TERM
 =  20.29    (WHEN MIN. R.F.=1)  AT K=   1, I=   1, J=  31
     1 CALLS TO GCG PACKAGE FOR TRANSPORT TIME STEP   3 IN FLOW TIME STEP  62 STRESS PERIOD   1
     6 TOTAL ITERATIONS
 
 SOLVING FOR HEAD 
 FLOW MODEL IS TRANSIENT
 FLOW MODEL CONTAINS CONSTANT-HEAD CELLS


 MAXIMUM STEPSIZE DURING WHICH ANY PARTICLE CANNOT MOVE MORE THAN ONE CELL
 =  4.363    (WHEN MIN. R.F.=1)  AT K=   4, I=   1, J=  60

 MAXIMUM STEPSIZE WHICH MEETS STABILITY CRITERION OF THE ADVECTION TERM
 (FOR PURE FINITE-DIFFERENCE OPTION, MIXELM=0) 
 =  3.158    (WHEN MIN. R.F.=1)  AT K=   2, I=   1, J=  44


 TOTAL NUMBER OF POINT SOURCES/SINKS PRESENT IN THE FLOW MODEL =    62

 MAXIMUM STEPSIZE WHICH MEETS STABILITY CRITERION OF THE SINK & SOURCE TERM
 =  89.74    (WHEN MIN. R.F.=1)  AT K=   2, I=   1, J= 120

 MAXIMUM STEPSIZE WHICH MEETS STABILITY CRITERION OF THE DISPERSION TERM
 =  20.29    (WHEN MIN. R.F.=1)  AT K=   1, I=   1, J=  31
     1 CALLS TO GCG PACKAGE FOR TRANSPORT TIME STEP   4 IN FLOW TIME STEP  62 STRESS PERIOD   1
     6 TOTAL ITERATIONS
 
 SOLVING FOR HEAD 
 FLOW MODEL IS TRANSIENT
 FLOW MODEL CONTAINS CONSTANT-HEAD CELLS


 MAXIMUM STEPSIZE DURING WHICH ANY PARTICLE CANNOT MOVE MORE THAN ONE CELL
 =  4.357    (WHEN MIN. R.F.=1)  AT K=   4, I=   1, J=  60

 MAXIMUM STEPSIZE WHICH MEETS STABILITY CRITERION OF THE ADVECTION TERM
 (FOR PURE FINITE-DIFFERENCE OPTION, MIXELM=0) 
 =  3.364    (WHEN MIN. R.F.=1)  AT K=   2, I=   1, J=  44


 TOTAL NUMBER OF POINT SOURCES/SINKS PRESENT IN THE FLOW MODEL =    62

 MAXIMUM STEPSIZE WHICH MEETS STABILITY CRITERION OF THE SINK & SOURCE TERM
 =  88.63    (WHEN MIN. R.F.=1)  AT K=   2, I=   1, J= 120

 MAXIMUM STEPSIZE WHICH MEETS STABILITY CRITERION OF THE DISPERSION TERM
 =  20.29    (WHEN MIN. R.F.=1)  AT K=   1, I=   1, J=  31
     1 CALLS TO GCG PACKAGE FOR TRANSPORT TIME STEP   5 IN FLOW TIME STEP  62 STRESS PERIOD   1
     5 TOTAL ITERATIONS
  MAXIMUM CONCENTRATION CHANGES FOR EACH ITERATION:
  MAX. CHANGE LAYER,ROW,COL MAX. CHANGE LAYER,ROW,COL MAX. CHANGE LAYER,ROW,COL MAX. CHANGE LAYER,ROW,COL MAX. CHANGE LAYER,ROW,COL
 ------------------------------------------------------------------------------------------------------------------------------------
   0.1756E-01 (  2,  1, 62)  0.4036E-03 (  2,  1, 76)  0.7648E-05 (  3,  1, 76)  0.1879E-06 (  3,  1, 75)  0.5086E-08 (  4,  1, 75)


                                          ================================================
                                                         FROM TIME =   620.00     TO    630.00    

 
 SOLVING FOR HEAD 
 FLOW MODEL IS TRANSIENT
 FLOW MODEL CONTAINS CONSTANT-HEAD CELLS


 MAXIMUM STEPSIZE DURING WHICH ANY PARTICLE CANNOT MOVE MORE THAN ONE CELL
 =  4.358    (WHEN MIN. R.F.=1)  AT K=   4, I=   1, J=  60

 MAXIMUM STEPSIZE WHICH MEETS STABILITY CRITERION OF THE ADVECTION TERM
 (FOR PURE FINITE-DIFFERENCE OPTION, MIXELM=0) 
 =  3.505    (WHEN MIN. R.F.=1)  AT K=   2, I=   1, J=  44


 TOTAL NUMBER OF POINT SOURCES/SINKS PRESENT IN THE FLOW MODEL =    62

 MAXIMUM STEPSIZE WHICH MEETS STABILITY CRITERION OF THE SINK & SOURCE TERM
 =  91.38    (WHEN MIN. R.F.=1)  AT K=   2, I=   1, J= 120

 MAXIMUM STEPSIZE WHICH MEETS STABILITY CRITERION OF THE DISPERSION TERM
 =  20.29    (WHEN MIN. R.F.=1)  AT K=   1, I=   1, J=  31


     1 CALLS TO GCG PACKAGE FOR TRANSPORT TIME STEP   1 IN FLOW TIME STEP  63 STRESS PERIOD   1
     6 TOTAL ITERATIONS

 NO OUTPUT CONTROL FOR STRESS PERIOD    1   TIME STEP  63
 
 SOLVING FOR HEAD 
 FLOW MODEL IS TRANSIENT
 FLOW MODEL CONTAINS CONSTANT-HEAD CELLS


 MAXIMUM STEPSIZE DURING WHICH ANY PARTICLE CANNOT MOVE MORE THAN ONE CELL
 =  4.352    (WHEN MIN. R.F.=1)  AT K=   4, I=   1, J=  60

 MAXIMUM STEPSIZE WHICH MEETS STABILITY CRITERION OF THE ADVECTION TERM
 (FOR PURE FINITE-DIFFERENCE OPTION, MIXELM=0) 
 =  3.351    (WHEN MIN. R.F.=1)  AT K=   2, I=   1, J=  76


 TOTAL NUMBER OF POINT SOURCES/SINKS PRESENT IN THE FLOW MODEL =    62

 MAXIMUM STEPSIZE WHICH MEETS STABILITY CRITERION OF THE SINK & SOURCE TERM
 =  89.15    (WHEN MIN. R.F.=1)  AT K=   2, I=   1, J= 120

 MAXIMUM STEPSIZE WHICH MEETS STABILITY CRITERION OF THE DISPERSION TERM
 =  20.29    (WHEN MIN. R.F.=1)  AT K=   1, I=   1, J=  31
     1 CALLS TO GCG PACKAGE FOR TRANSPORT TIME STEP   2 IN FLOW TIME STEP  63 STRESS PERIOD   1
     6 TOTAL ITERATIONS
 
 SOLVING FOR HEAD 
 FLOW MODEL IS TRANSIENT
 FLOW MODEL CONTAINS CONSTANT-HEAD CELLS


 MAXIMUM STEPSIZE DURING WHICH ANY PARTICLE CANNOT MOVE MORE THAN ONE CELL
 =  4.342    (WHEN MIN. R.F.=1)  AT K=   4, I=   1, J=  60

 MAXIMUM STEPSIZE WHICH MEETS STABILITY CRITERION OF THE ADVECTION TERM
 (FOR PURE FINITE-DIFFERENCE OPTION, MIXELM=0) 
 =  3.244    (WHEN MIN. R.F.=1)  AT K=   2, I=   1, J=  76


 TOTAL NUMBER OF POINT SOURCES/SINKS PRESENT IN THE FLOW MODEL =    62

 MAXIMUM STEPSIZE WHICH MEETS STABILITY CRITERION OF THE SINK & SOURCE TERM
 =  89.83    (WHEN MIN. R.F.=1)  AT K=   2, I=   1, J= 120

 MAXIMUM STEPSIZE WHICH MEETS STABILITY CRITERION OF THE DISPERSION TERM
 =  20.29    (WHEN MIN. R.F.=1)  AT K=   1, I=   1, J=  31
     1 CALLS TO GCG PACKAGE FOR TRANSPORT TIME STEP   3 IN FLOW TIME STEP  63 STRESS PERIOD   1
     6 TOTAL ITERATIONS
 
 SOLVING FOR HEAD 
 FLOW MODEL IS TRANSIENT
 FLOW MODEL CONTAINS CONSTANT-HEAD CELLS


 MAXIMUM STEPSIZE DURING WHICH ANY PARTICLE CANNOT MOVE MORE THAN ONE CELL
 =  4.337    (WHEN MIN. R.F.=1)  AT K=   4, I=   1, J=  60

 MAXIMUM STEPSIZE WHICH MEETS STABILITY CRITERION OF THE ADVECTION TERM
 (FOR PURE FINITE-DIFFERENCE OPTION, MIXELM=0) 
 =  3.217    (WHEN MIN. R.F.=1)  AT K=   2, I=   1, J=  45


 TOTAL NUMBER OF POINT SOURCES/SINKS PRESENT IN THE FLOW MODEL =    62

 MAXIMUM STEPSIZE WHICH MEETS STABILITY CRITERION OF THE SINK & SOURCE TERM
 =  89.81    (WHEN MIN. R.F.=1)  AT K=   2, I=   1, J= 120

 MAXIMUM STEPSIZE WHICH MEETS STABILITY CRITERION OF THE DISPERSION TERM
 =  20.29    (WHEN MIN. R.F.=1)  AT K=   1, I=   1, J=  31
     1 CALLS TO GCG PACKAGE FOR TRANSPORT TIME STEP   4 IN FLOW TIME STEP  63 STRESS PERIOD   1
     6 TOTAL ITERATIONS
  MAXIMUM CONCENTRATION CHANGES FOR EACH ITERATION:
  MAX. CHANGE LAYER,ROW,COL MAX. CHANGE LAYER,ROW,COL MAX. CHANGE LAYER,ROW,COL MAX. CHANGE LAYER,ROW,COL MAX. CHANGE LAYER,ROW,COL
 ------------------------------------------------------------------------------------------------------------------------------------
   0.4144E-01 (  2,  1, 77)  0.1192E-02 (  2,  1, 77)  0.6966E-04 (  2,  1, 78)  0.3996E-05 (  3,  1, 78)  0.1398E-06 (  4,  1, 44)
   0.8360E-08 (  4,  1, 77)


                                          ================================================
                                                         FROM TIME =   630.00     TO    640.00    

 
 SOLVING FOR HEAD 
 FLOW MODEL IS TRANSIENT
 FLOW MODEL CONTAINS CONSTANT-HEAD CELLS


 MAXIMUM STEPSIZE DURING WHICH ANY PARTICLE CANNOT MOVE MORE THAN ONE CELL
 =  4.337    (WHEN MIN. R.F.=1)  AT K=   4, I=   1, J=  60

 MAXIMUM STEPSIZE WHICH MEETS STABILITY CRITERION OF THE ADVECTION TERM
 (FOR PURE FINITE-DIFFERENCE OPTION, MIXELM=0) 
 =  3.282    (WHEN MIN. R.F.=1)  AT K=   2, I=   1, J=  45


 TOTAL NUMBER OF POINT SOURCES/SINKS PRESENT IN THE FLOW MODEL =    62

 MAXIMUM STEPSIZE WHICH MEETS STABILITY CRITERION OF THE SINK & SOURCE TERM
 =  88.84    (WHEN MIN. R.F.=1)  AT K=   2, I=   1, J= 120

 MAXIMUM STEPSIZE WHICH MEETS STABILITY CRITERION OF THE DISPERSION TERM
 =  20.29    (WHEN MIN. R.F.=1)  AT K=   1, I=   1, J=  31


     1 CALLS TO GCG PACKAGE FOR TRANSPORT TIME STEP   1 IN FLOW TIME STEP  64 STRESS PERIOD   1
     6 TOTAL ITERATIONS

 NO OUTPUT CONTROL FOR STRESS PERIOD    1   TIME STEP  64
 
 SOLVING FOR HEAD 
 FLOW MODEL IS TRANSIENT
 FLOW MODEL CONTAINS CONSTANT-HEAD CELLS


 MAXIMUM STEPSIZE DURING WHICH ANY PARTICLE CANNOT MOVE MORE THAN ONE CELL
 =  4.340    (WHEN MIN. R.F.=1)  AT K=   4, I=   1, J=  60

 MAXIMUM STEPSIZE WHICH MEETS STABILITY CRITERION OF THE ADVECTION TERM
 (FOR PURE FINITE-DIFFERENCE OPTION, MIXELM=0) 
 =  3.455    (WHEN MIN. R.F.=1)  AT K=   2, I=   1, J=  45


 TOTAL NUMBER OF POINT SOURCES/SINKS PRESENT IN THE FLOW MODEL =    62

 MAXIMUM STEPSIZE WHICH MEETS STABILITY CRITERION OF THE SINK & SOURCE TERM
 =  86.82    (WHEN MIN. R.F.=1)  AT K=   2, I=   1, J= 120

 MAXIMUM STEPSIZE WHICH MEETS STABILITY CRITERION OF THE DISPERSION TERM
 =  20.29    (WHEN MIN. R.F.=1)  AT K=   1, I=   1, J=  31
     1 CALLS TO GCG PACKAGE FOR TRANSPORT TIME STEP   2 IN FLOW TIME STEP  64 STRESS PERIOD   1
     6 TOTAL ITERATIONS
 
 SOLVING FOR HEAD 
 FLOW MODEL IS TRANSIENT
 FLOW MODEL CONTAINS CONSTANT-HEAD CELLS


 MAXIMUM STEPSIZE DURING WHICH ANY PARTICLE CANNOT MOVE MORE THAN ONE CELL
 =  4.343    (WHEN MIN. R.F.=1)  AT K=   4, I=   1, J=  60

 MAXIMUM STEPSIZE WHICH MEETS STABILITY CRITERION OF THE ADVECTION TERM
 (FOR PURE FINITE-DIFFERENCE OPTION, MIXELM=0) 
 =  3.639    (WHEN MIN. R.F.=1)  AT K=   2, I=   1, J=  60


 TOTAL NUMBER OF POINT SOURCES/SINKS PRESENT IN THE FLOW MODEL =    62

 MAXIMUM STEPSIZE WHICH MEETS STABILITY CRITERION OF THE SINK & SOURCE TERM
 =  85.03    (WHEN MIN. R.F.=1)  AT K=   2, I=   1, J= 120

 MAXIMUM STEPSIZE WHICH MEETS STABILITY CRITERION OF THE DISPERSION TERM
 =  20.29    (WHEN MIN. R.F.=1)  AT K=   1, I=   1, J=  31
     1 CALLS TO GCG PACKAGE FOR TRANSPORT TIME STEP   3 IN FLOW TIME STEP  64 STRESS PERIOD   1
     6 TOTAL ITERATIONS
 
 SOLVING FOR HEAD 
 FLOW MODEL IS TRANSIENT
 FLOW MODEL CONTAINS CONSTANT-HEAD CELLS


 MAXIMUM STEPSIZE DURING WHICH ANY PARTICLE CANNOT MOVE MORE THAN ONE CELL
 =  4.345    (WHEN MIN. R.F.=1)  AT K=   4, I=   1, J=  60

 MAXIMUM STEPSIZE WHICH MEETS STABILITY CRITERION OF THE ADVECTION TERM
 (FOR PURE FINITE-DIFFERENCE OPTION, MIXELM=0) 
 =  3.641    (WHEN MIN. R.F.=1)  AT K=   2, I=   1, J=  60


 TOTAL NUMBER OF POINT SOURCES/SINKS PRESENT IN THE FLOW MODEL =    62

 MAXIMUM STEPSIZE WHICH MEETS STABILITY CRITERION OF THE SINK & SOURCE TERM
 =  83.78    (WHEN MIN. R.F.=1)  AT K=   2, I=   1, J= 120

 MAXIMUM STEPSIZE WHICH MEETS STABILITY CRITERION OF THE DISPERSION TERM
 =  20.29    (WHEN MIN. R.F.=1)  AT K=   1, I=   1, J=  31
     1 CALLS TO GCG PACKAGE FOR TRANSPORT TIME STEP   4 IN FLOW TIME STEP  64 STRESS PERIOD   1
     6 TOTAL ITERATIONS
  MAXIMUM CONCENTRATION CHANGES FOR EACH ITERATION:
  MAX. CHANGE LAYER,ROW,COL MAX. CHANGE LAYER,ROW,COL MAX. CHANGE LAYER,ROW,COL MAX. CHANGE LAYER,ROW,COL MAX. CHANGE LAYER,ROW,COL
 ------------------------------------------------------------------------------------------------------------------------------------
   0.4131E-01 (  2,  1, 62)  0.1440E-02 (  3,  1, 43)  0.7720E-04 (  2,  1, 77)  0.4478E-05 (  3,  1, 77)  0.2212E-06 (  4,  1, 47)
   0.1117E-07 (  4,  1, 64)


                                          ================================================
                                                         FROM TIME =   640.00     TO    650.00    

 
 SOLVING FOR HEAD 
 FLOW MODEL IS TRANSIENT
 FLOW MODEL CONTAINS CONSTANT-HEAD CELLS


 MAXIMUM STEPSIZE DURING WHICH ANY PARTICLE CANNOT MOVE MORE THAN ONE CELL
 =  4.346    (WHEN MIN. R.F.=1)  AT K=   4, I=   1, J=  60

 MAXIMUM STEPSIZE WHICH MEETS STABILITY CRITERION OF THE ADVECTION TERM
 (FOR PURE FINITE-DIFFERENCE OPTION, MIXELM=0) 
 =  3.476    (WHEN MIN. R.F.=1)  AT K=   2, I=   1, J=  81


 TOTAL NUMBER OF POINT SOURCES/SINKS PRESENT IN THE FLOW MODEL =    62

 MAXIMUM STEPSIZE WHICH MEETS STABILITY CRITERION OF THE SINK & SOURCE TERM
 =  84.33    (WHEN MIN. R.F.=1)  AT K=   2, I=   1, J= 120

 MAXIMUM STEPSIZE WHICH MEETS STABILITY CRITERION OF THE DISPERSION TERM
 =  20.29    (WHEN MIN. R.F.=1)  AT K=   1, I=   1, J=  31


     1 CALLS TO GCG PACKAGE FOR TRANSPORT TIME STEP   1 IN FLOW TIME STEP  65 STRESS PERIOD   1
     6 TOTAL ITERATIONS

 NO OUTPUT CONTROL FOR STRESS PERIOD    1   TIME STEP  65
 
 SOLVING FOR HEAD 
 FLOW MODEL IS TRANSIENT
 FLOW MODEL CONTAINS CONSTANT-HEAD CELLS


 MAXIMUM STEPSIZE DURING WHICH ANY PARTICLE CANNOT MOVE MORE THAN ONE CELL
 =  4.348    (WHEN MIN. R.F.=1)  AT K=   4, I=   1, J=  60

 MAXIMUM STEPSIZE WHICH MEETS STABILITY CRITERION OF THE ADVECTION TERM
 (FOR PURE FINITE-DIFFERENCE OPTION, MIXELM=0) 
 =  3.397    (WHEN MIN. R.F.=1)  AT K=   2, I=   1, J=  81


 TOTAL NUMBER OF POINT SOURCES/SINKS PRESENT IN THE FLOW MODEL =    62

 MAXIMUM STEPSIZE WHICH MEETS STABILITY CRITERION OF THE SINK & SOURCE TERM
 =  84.24    (WHEN MIN. R.F.=1)  AT K=   2, I=   1, J= 120

 MAXIMUM STEPSIZE WHICH MEETS STABILITY CRITERION OF THE DISPERSION TERM
 =  20.29    (WHEN MIN. R.F.=1)  AT K=   1, I=   1, J=  31
     1 CALLS TO GCG PACKAGE FOR TRANSPORT TIME STEP   2 IN FLOW TIME STEP  65 STRESS PERIOD   1
     6 TOTAL ITERATIONS
 
 SOLVING FOR HEAD 
 FLOW MODEL IS TRANSIENT
 FLOW MODEL CONTAINS CONSTANT-HEAD CELLS


 MAXIMUM STEPSIZE DURING WHICH ANY PARTICLE CANNOT MOVE MORE THAN ONE CELL
 =  4.130    (WHEN MIN. R.F.=1)  AT K=   3, I=   1, J=  74

 MAXIMUM STEPSIZE WHICH MEETS STABILITY CRITERION OF THE ADVECTION TERM
 (FOR PURE FINITE-DIFFERENCE OPTION, MIXELM=0) 
 =  3.376    (WHEN MIN. R.F.=1)  AT K=   2, I=   1, J=  74


 TOTAL NUMBER OF POINT SOURCES/SINKS PRESENT IN THE FLOW MODEL =    62

 MAXIMUM STEPSIZE WHICH MEETS STABILITY CRITERION OF THE SINK & SOURCE TERM
 =  83.05    (WHEN MIN. R.F.=1)  AT K=   2, I=   1, J= 120

 MAXIMUM STEPSIZE WHICH MEETS STABILITY CRITERION OF THE DISPERSION TERM
 =  20.29    (WHEN MIN. R.F.=1)  AT K=   1, I=   1, J=  31
     1 CALLS TO GCG PACKAGE FOR TRANSPORT TIME STEP   3 IN FLOW TIME STEP  65 STRESS PERIOD   1
     6 TOTAL ITERATIONS
 
 SOLVING FOR HEAD 
 FLOW MODEL IS TRANSIENT
 FLOW MODEL CONTAINS CONSTANT-HEAD CELLS


 MAXIMUM STEPSIZE DURING WHICH ANY PARTICLE CANNOT MOVE MORE THAN ONE CELL
 =  3.928    (WHEN MIN. R.F.=1)  AT K=   4, I=   1, J=  74

 MAXIMUM STEPSIZE WHICH MEETS STABILITY CRITERION OF THE ADVECTION TERM
 (FOR PURE FINITE-DIFFERENCE OPTION, MIXELM=0) 
 =  3.118    (WHEN MIN. R.F.=1)  AT K=   2, I=   1, J=  80


 TOTAL NUMBER OF POINT SOURCES/SINKS PRESENT IN THE FLOW MODEL =    62

 MAXIMUM STEPSIZE WHICH MEETS STABILITY CRITERION OF THE SINK & SOURCE TERM
 =  81.08    (WHEN MIN. R.F.=1)  AT K=   2, I=   1, J= 120

 MAXIMUM STEPSIZE WHICH MEETS STABILITY CRITERION OF THE DISPERSION TERM
 =  20.29    (WHEN MIN. R.F.=1)  AT K=   1, I=   1, J=  31
     1 CALLS TO GCG PACKAGE FOR TRANSPORT TIME STEP   4 IN FLOW TIME STEP  65 STRESS PERIOD   1
     5 TOTAL ITERATIONS
  MAXIMUM CONCENTRATION CHANGES FOR EACH ITERATION:
  MAX. CHANGE LAYER,ROW,COL MAX. CHANGE LAYER,ROW,COL MAX. CHANGE LAYER,ROW,COL MAX. CHANGE LAYER,ROW,COL MAX. CHANGE LAYER,ROW,COL
 ------------------------------------------------------------------------------------------------------------------------------------
   0.3437E-01 (  2,  1, 62)  0.1037E-02 (  2,  1, 62)  0.4603E-04 (  3,  1, 41)  0.2073E-05 (  3,  1, 77)  0.7905E-07 (  4,  1, 62)


                                          ================================================
                                                         FROM TIME =   650.00     TO    660.00    

 
 SOLVING FOR HEAD 
 FLOW MODEL IS TRANSIENT
 FLOW MODEL CONTAINS CONSTANT-HEAD CELLS


 MAXIMUM STEPSIZE DURING WHICH ANY PARTICLE CANNOT MOVE MORE THAN ONE CELL
 =  3.818    (WHEN MIN. R.F.=1)  AT K=   4, I=   1, J=  74

 MAXIMUM STEPSIZE WHICH MEETS STABILITY CRITERION OF THE ADVECTION TERM
 (FOR PURE FINITE-DIFFERENCE OPTION, MIXELM=0) 
 =  2.956    (WHEN MIN. R.F.=1)  AT K=   2, I=   1, J=  80


 TOTAL NUMBER OF POINT SOURCES/SINKS PRESENT IN THE FLOW MODEL =    62

 MAXIMUM STEPSIZE WHICH MEETS STABILITY CRITERION OF THE SINK & SOURCE TERM
 =  81.31    (WHEN MIN. R.F.=1)  AT K=   2, I=   1, J= 120

 MAXIMUM STEPSIZE WHICH MEETS STABILITY CRITERION OF THE DISPERSION TERM
 =  20.29    (WHEN MIN. R.F.=1)  AT K=   1, I=   1, J=  31


     1 CALLS TO GCG PACKAGE FOR TRANSPORT TIME STEP   1 IN FLOW TIME STEP  66 STRESS PERIOD   1
     6 TOTAL ITERATIONS

 NO OUTPUT CONTROL FOR STRESS PERIOD    1   TIME STEP  66
 
 SOLVING FOR HEAD 
 FLOW MODEL IS TRANSIENT
 FLOW MODEL CONTAINS CONSTANT-HEAD CELLS


 MAXIMUM STEPSIZE DURING WHICH ANY PARTICLE CANNOT MOVE MORE THAN ONE CELL
 =  3.754    (WHEN MIN. R.F.=1)  AT K=   4, I=   1, J=  74

 MAXIMUM STEPSIZE WHICH MEETS STABILITY CRITERION OF THE ADVECTION TERM
 (FOR PURE FINITE-DIFFERENCE OPTION, MIXELM=0) 
 =  2.910    (WHEN MIN. R.F.=1)  AT K=   2, I=   1, J=  80


 TOTAL NUMBER OF POINT SOURCES/SINKS PRESENT IN THE FLOW MODEL =    62

 MAXIMUM STEPSIZE WHICH MEETS STABILITY CRITERION OF THE SINK & SOURCE TERM
 =  81.25    (WHEN MIN. R.F.=1)  AT K=   2, I=   1, J= 120

 MAXIMUM STEPSIZE WHICH MEETS STABILITY CRITERION OF THE DISPERSION TERM
 =  20.29    (WHEN MIN. R.F.=1)  AT K=   1, I=   1, J=  31
     1 CALLS TO GCG PACKAGE FOR TRANSPORT TIME STEP   2 IN FLOW TIME STEP  66 STRESS PERIOD   1
     6 TOTAL ITERATIONS
 
 SOLVING FOR HEAD 
 FLOW MODEL IS TRANSIENT
 FLOW MODEL CONTAINS CONSTANT-HEAD CELLS


 MAXIMUM STEPSIZE DURING WHICH ANY PARTICLE CANNOT MOVE MORE THAN ONE CELL
 =  3.747    (WHEN MIN. R.F.=1)  AT K=   4, I=   1, J=  74

 MAXIMUM STEPSIZE WHICH MEETS STABILITY CRITERION OF THE ADVECTION TERM
 (FOR PURE FINITE-DIFFERENCE OPTION, MIXELM=0) 
 =  3.069    (WHEN MIN. R.F.=1)  AT K=   2, I=   1, J=  80


 TOTAL NUMBER OF POINT SOURCES/SINKS PRESENT IN THE FLOW MODEL =    62

 MAXIMUM STEPSIZE WHICH MEETS STABILITY CRITERION OF THE SINK & SOURCE TERM
 =  81.55    (WHEN MIN. R.F.=1)  AT K=   2, I=   1, J= 120

 MAXIMUM STEPSIZE WHICH MEETS STABILITY CRITERION OF THE DISPERSION TERM
 =  20.29    (WHEN MIN. R.F.=1)  AT K=   1, I=   1, J=  31
     1 CALLS TO GCG PACKAGE FOR TRANSPORT TIME STEP   3 IN FLOW TIME STEP  66 STRESS PERIOD   1
     6 TOTAL ITERATIONS
 
 SOLVING FOR HEAD 
 FLOW MODEL IS TRANSIENT
 FLOW MODEL CONTAINS CONSTANT-HEAD CELLS


 MAXIMUM STEPSIZE DURING WHICH ANY PARTICLE CANNOT MOVE MORE THAN ONE CELL
 =  3.776    (WHEN MIN. R.F.=1)  AT K=   4, I=   1, J=  74

 MAXIMUM STEPSIZE WHICH MEETS STABILITY CRITERION OF THE ADVECTION TERM
 (FOR PURE FINITE-DIFFERENCE OPTION, MIXELM=0) 
 =  3.006    (WHEN MIN. R.F.=1)  AT K=   2, I=   1, J=  79


 TOTAL NUMBER OF POINT SOURCES/SINKS PRESENT IN THE FLOW MODEL =    62

 MAXIMUM STEPSIZE WHICH MEETS STABILITY CRITERION OF THE SINK & SOURCE TERM
 =  82.68    (WHEN MIN. R.F.=1)  AT K=   2, I=   1, J= 120

 MAXIMUM STEPSIZE WHICH MEETS STABILITY CRITERION OF THE DISPERSION TERM
 =  20.29    (WHEN MIN. R.F.=1)  AT K=   1, I=   1, J=  31
     1 CALLS TO GCG PACKAGE FOR TRANSPORT TIME STEP   4 IN FLOW TIME STEP  66 STRESS PERIOD   1
     6 TOTAL ITERATIONS
 
 SOLVING FOR HEAD 
 FLOW MODEL IS TRANSIENT
 FLOW MODEL CONTAINS CONSTANT-HEAD CELLS


 MAXIMUM STEPSIZE DURING WHICH ANY PARTICLE CANNOT MOVE MORE THAN ONE CELL
 =  3.846    (WHEN MIN. R.F.=1)  AT K=   4, I=   1, J=  74

 MAXIMUM STEPSIZE WHICH MEETS STABILITY CRITERION OF THE ADVECTION TERM
 (FOR PURE FINITE-DIFFERENCE OPTION, MIXELM=0) 
 =  2.803    (WHEN MIN. R.F.=1)  AT K=   2, I=   1, J=  79


 TOTAL NUMBER OF POINT SOURCES/SINKS PRESENT IN THE FLOW MODEL =    62

 MAXIMUM STEPSIZE WHICH MEETS STABILITY CRITERION OF THE SINK & SOURCE TERM
 =  82.01    (WHEN MIN. R.F.=1)  AT K=   2, I=   1, J= 120

 MAXIMUM STEPSIZE WHICH MEETS STABILITY CRITERION OF THE DISPERSION TERM
 =  20.29    (WHEN MIN. R.F.=1)  AT K=   1, I=   1, J=  31
     1 CALLS TO GCG PACKAGE FOR TRANSPORT TIME STEP   5 IN FLOW TIME STEP  66 STRESS PERIOD   1
     5 TOTAL ITERATIONS
  MAXIMUM CONCENTRATION CHANGES FOR EACH ITERATION:
  MAX. CHANGE LAYER,ROW,COL MAX. CHANGE LAYER,ROW,COL MAX. CHANGE LAYER,ROW,COL MAX. CHANGE LAYER,ROW,COL MAX. CHANGE LAYER,ROW,COL
 ------------------------------------------------------------------------------------------------------------------------------------
   0.1553E-01 (  2,  1, 62)  0.2197E-03 (  2,  1, 62)  0.5506E-05 (  3,  1, 42)  0.1315E-06 (  3,  1, 76)  0.2474E-08 (  4,  1, 80)


                                          ================================================
                                                         FROM TIME =   660.00     TO    670.00    

 
 SOLVING FOR HEAD 
 FLOW MODEL IS TRANSIENT
 FLOW MODEL CONTAINS CONSTANT-HEAD CELLS


 MAXIMUM STEPSIZE DURING WHICH ANY PARTICLE CANNOT MOVE MORE THAN ONE CELL
 =  3.884    (WHEN MIN. R.F.=1)  AT K=   4, I=   1, J=  74

 MAXIMUM STEPSIZE WHICH MEETS STABILITY CRITERION OF THE ADVECTION TERM
 (FOR PURE FINITE-DIFFERENCE OPTION, MIXELM=0) 
 =  2.781    (WHEN MIN. R.F.=1)  AT K=   2, I=   1, J=  79


 TOTAL NUMBER OF POINT SOURCES/SINKS PRESENT IN THE FLOW MODEL =    62

 MAXIMUM STEPSIZE WHICH MEETS STABILITY CRITERION OF THE SINK & SOURCE TERM
 =  87.59    (WHEN MIN. R.F.=1)  AT K=   2, I=   1, J= 120

 MAXIMUM STEPSIZE WHICH MEETS STABILITY CRITERION OF THE DISPERSION TERM
 =  20.29    (WHEN MIN. R.F.=1)  AT K=   1, I=   1, J=  31


     1 CALLS TO GCG PACKAGE FOR TRANSPORT TIME STEP   1 IN FLOW TIME STEP  67 STRESS PERIOD   1
     6 TOTAL ITERATIONS

 NO OUTPUT CONTROL FOR STRESS PERIOD    1   TIME STEP  67
 
 SOLVING FOR HEAD 
 FLOW MODEL IS TRANSIENT
 FLOW MODEL CONTAINS CONSTANT-HEAD CELLS


 MAXIMUM STEPSIZE DURING WHICH ANY PARTICLE CANNOT MOVE MORE THAN ONE CELL
 =  3.977    (WHEN MIN. R.F.=1)  AT K=   5, I=   1, J=  74

 MAXIMUM STEPSIZE WHICH MEETS STABILITY CRITERION OF THE ADVECTION TERM
 (FOR PURE FINITE-DIFFERENCE OPTION, MIXELM=0) 
 =  2.795    (WHEN MIN. R.F.=1)  AT K=   2, I=   1, J=  79


 TOTAL NUMBER OF POINT SOURCES/SINKS PRESENT IN THE FLOW MODEL =    62

 MAXIMUM STEPSIZE WHICH MEETS STABILITY CRITERION OF THE SINK & SOURCE TERM
 =  86.50    (WHEN MIN. R.F.=1)  AT K=   2, I=   1, J= 120

 MAXIMUM STEPSIZE WHICH MEETS STABILITY CRITERION OF THE DISPERSION TERM
 =  20.29    (WHEN MIN. R.F.=1)  AT K=   1, I=   1, J=  31
     1 CALLS TO GCG PACKAGE FOR TRANSPORT TIME STEP   2 IN FLOW TIME STEP  67 STRESS PERIOD   1
     6 TOTAL ITERATIONS
 
 SOLVING FOR HEAD 
 FLOW MODEL IS TRANSIENT
 FLOW MODEL CONTAINS CONSTANT-HEAD CELLS


 MAXIMUM STEPSIZE DURING WHICH ANY PARTICLE CANNOT MOVE MORE THAN ONE CELL
 =  4.062    (WHEN MIN. R.F.=1)  AT K=   5, I=   1, J=  74

 MAXIMUM STEPSIZE WHICH MEETS STABILITY CRITERION OF THE ADVECTION TERM
 (FOR PURE FINITE-DIFFERENCE OPTION, MIXELM=0) 
 =  2.932    (WHEN MIN. R.F.=1)  AT K=   2, I=   1, J=  79


 TOTAL NUMBER OF POINT SOURCES/SINKS PRESENT IN THE FLOW MODEL =    62

 MAXIMUM STEPSIZE WHICH MEETS STABILITY CRITERION OF THE SINK & SOURCE TERM
 =  86.59    (WHEN MIN. R.F.=1)  AT K=   2, I=   1, J= 120

 MAXIMUM STEPSIZE WHICH MEETS STABILITY CRITERION OF THE DISPERSION TERM
 =  20.29    (WHEN MIN. R.F.=1)  AT K=   1, I=   1, J=  31
     1 CALLS TO GCG PACKAGE FOR TRANSPORT TIME STEP   3 IN FLOW TIME STEP  67 STRESS PERIOD   1
     6 TOTAL ITERATIONS
 
 SOLVING FOR HEAD 
 FLOW MODEL IS TRANSIENT
 FLOW MODEL CONTAINS CONSTANT-HEAD CELLS


 MAXIMUM STEPSIZE DURING WHICH ANY PARTICLE CANNOT MOVE MORE THAN ONE CELL
 =  4.179    (WHEN MIN. R.F.=1)  AT K=   5, I=   1, J=  74

 MAXIMUM STEPSIZE WHICH MEETS STABILITY CRITERION OF THE ADVECTION TERM
 (FOR PURE FINITE-DIFFERENCE OPTION, MIXELM=0) 
 =  2.932    (WHEN MIN. R.F.=1)  AT K=   2, I=   1, J=  42


 TOTAL NUMBER OF POINT SOURCES/SINKS PRESENT IN THE FLOW MODEL =    62

 MAXIMUM STEPSIZE WHICH MEETS STABILITY CRITERION OF THE SINK & SOURCE TERM
 =  87.27    (WHEN MIN. R.F.=1)  AT K=   2, I=   1, J= 120

 MAXIMUM STEPSIZE WHICH MEETS STABILITY CRITERION OF THE DISPERSION TERM
 =  20.29    (WHEN MIN. R.F.=1)  AT K=   1, I=   1, J=  31
     1 CALLS TO GCG PACKAGE FOR TRANSPORT TIME STEP   4 IN FLOW TIME STEP  67 STRESS PERIOD   1
     6 TOTAL ITERATIONS
 
 SOLVING FOR HEAD 
 FLOW MODEL IS TRANSIENT
 FLOW MODEL CONTAINS CONSTANT-HEAD CELLS


 MAXIMUM STEPSIZE DURING WHICH ANY PARTICLE CANNOT MOVE MORE THAN ONE CELL
 =  4.335    (WHEN MIN. R.F.=1)  AT K=   6, I=   1, J=  74

 MAXIMUM STEPSIZE WHICH MEETS STABILITY CRITERION OF THE ADVECTION TERM
 (FOR PURE FINITE-DIFFERENCE OPTION, MIXELM=0) 
 =  2.974    (WHEN MIN. R.F.=1)  AT K=   2, I=   1, J=  78


 TOTAL NUMBER OF POINT SOURCES/SINKS PRESENT IN THE FLOW MODEL =    62

 MAXIMUM STEPSIZE WHICH MEETS STABILITY CRITERION OF THE SINK & SOURCE TERM
 =  87.22    (WHEN MIN. R.F.=1)  AT K=   2, I=   1, J= 120

 MAXIMUM STEPSIZE WHICH MEETS STABILITY CRITERION OF THE DISPERSION TERM
 =  20.29    (WHEN MIN. R.F.=1)  AT K=   1, I=   1, J=  31
     1 CALLS TO GCG PACKAGE FOR TRANSPORT TIME STEP   5 IN FLOW TIME STEP  67 STRESS PERIOD   1
     5 TOTAL ITERATIONS
  MAXIMUM CONCENTRATION CHANGES FOR EACH ITERATION:
  MAX. CHANGE LAYER,ROW,COL MAX. CHANGE LAYER,ROW,COL MAX. CHANGE LAYER,ROW,COL MAX. CHANGE LAYER,ROW,COL MAX. CHANGE LAYER,ROW,COL
 ------------------------------------------------------------------------------------------------------------------------------------
   0.2470E-01 (  2,  1, 62)  0.6746E-03 (  2,  1, 78)  0.2228E-04 (  3,  1, 43)  0.9574E-06 (  3,  1, 45)  0.2565E-07 (  4,  1, 45)


                                          ================================================
                                                         FROM TIME =   670.00     TO    680.00    

 
 SOLVING FOR HEAD 
 FLOW MODEL IS TRANSIENT
 FLOW MODEL CONTAINS CONSTANT-HEAD CELLS


 MAXIMUM STEPSIZE DURING WHICH ANY PARTICLE CANNOT MOVE MORE THAN ONE CELL
 =  4.381    (WHEN MIN. R.F.=1)  AT K=   4, I=   1, J=  60

 MAXIMUM STEPSIZE WHICH MEETS STABILITY CRITERION OF THE ADVECTION TERM
 (FOR PURE FINITE-DIFFERENCE OPTION, MIXELM=0) 
 =  2.882    (WHEN MIN. R.F.=1)  AT K=   2, I=   1, J=  78


 TOTAL NUMBER OF POINT SOURCES/SINKS PRESENT IN THE FLOW MODEL =    62

 MAXIMUM STEPSIZE WHICH MEETS STABILITY CRITERION OF THE SINK & SOURCE TERM
 =  89.97    (WHEN MIN. R.F.=1)  AT K=   2, I=   1, J= 120

 MAXIMUM STEPSIZE WHICH MEETS STABILITY CRITERION OF THE DISPERSION TERM
 =  20.29    (WHEN MIN. R.F.=1)  AT K=   1, I=   1, J=  31


     1 CALLS TO GCG PACKAGE FOR TRANSPORT TIME STEP   1 IN FLOW TIME STEP  68 STRESS PERIOD   1
     6 TOTAL ITERATIONS

 NO OUTPUT CONTROL FOR STRESS PERIOD    1   TIME STEP  68
 
 SOLVING FOR HEAD 
 FLOW MODEL IS TRANSIENT
 FLOW MODEL CONTAINS CONSTANT-HEAD CELLS


 MAXIMUM STEPSIZE DURING WHICH ANY PARTICLE CANNOT MOVE MORE THAN ONE CELL
 =  4.377    (WHEN MIN. R.F.=1)  AT K=   4, I=   1, J=  60

 MAXIMUM STEPSIZE WHICH MEETS STABILITY CRITERION OF THE ADVECTION TERM
 (FOR PURE FINITE-DIFFERENCE OPTION, MIXELM=0) 
 =  2.840    (WHEN MIN. R.F.=1)  AT K=   2, I=   1, J=  78


 TOTAL NUMBER OF POINT SOURCES/SINKS PRESENT IN THE FLOW MODEL =    62

 MAXIMUM STEPSIZE WHICH MEETS STABILITY CRITERION OF THE SINK & SOURCE TERM
 =  89.09    (WHEN MIN. R.F.=1)  AT K=   2, I=   1, J= 120

 MAXIMUM STEPSIZE WHICH MEETS STABILITY CRITERION OF THE DISPERSION TERM
 =  20.29    (WHEN MIN. R.F.=1)  AT K=   1, I=   1, J=  31
     1 CALLS TO GCG PACKAGE FOR TRANSPORT TIME STEP   2 IN FLOW TIME STEP  68 STRESS PERIOD   1
     5 TOTAL ITERATIONS
 
 SOLVING FOR HEAD 
 FLOW MODEL IS TRANSIENT
 FLOW MODEL CONTAINS CONSTANT-HEAD CELLS


 MAXIMUM STEPSIZE DURING WHICH ANY PARTICLE CANNOT MOVE MORE THAN ONE CELL
 =  4.372    (WHEN MIN. R.F.=1)  AT K=   4, I=   1, J=  60

 MAXIMUM STEPSIZE WHICH MEETS STABILITY CRITERION OF THE ADVECTION TERM
 (FOR PURE FINITE-DIFFERENCE OPTION, MIXELM=0) 
 =  2.911    (WHEN MIN. R.F.=1)  AT K=   2, I=   1, J=  78


 TOTAL NUMBER OF POINT SOURCES/SINKS PRESENT IN THE FLOW MODEL =    62

 MAXIMUM STEPSIZE WHICH MEETS STABILITY CRITERION OF THE SINK & SOURCE TERM
 =  90.57    (WHEN MIN. R.F.=1)  AT K=   2, I=   1, J= 120

 MAXIMUM STEPSIZE WHICH MEETS STABILITY CRITERION OF THE DISPERSION TERM
 =  20.29    (WHEN MIN. R.F.=1)  AT K=   1, I=   1, J=  31
     1 CALLS TO GCG PACKAGE FOR TRANSPORT TIME STEP   3 IN FLOW TIME STEP  68 STRESS PERIOD   1
     5 TOTAL ITERATIONS
 
 SOLVING FOR HEAD 
 FLOW MODEL IS TRANSIENT
 FLOW MODEL CONTAINS CONSTANT-HEAD CELLS


 MAXIMUM STEPSIZE DURING WHICH ANY PARTICLE CANNOT MOVE MORE THAN ONE CELL
 =  4.367    (WHEN MIN. R.F.=1)  AT K=   4, I=   1, J=  60

 MAXIMUM STEPSIZE WHICH MEETS STABILITY CRITERION OF THE ADVECTION TERM
 (FOR PURE FINITE-DIFFERENCE OPTION, MIXELM=0) 
 =  2.927    (WHEN MIN. R.F.=1)  AT K=   2, I=   1, J=  43


 TOTAL NUMBER OF POINT SOURCES/SINKS PRESENT IN THE FLOW MODEL =    62

 MAXIMUM STEPSIZE WHICH MEETS STABILITY CRITERION OF THE SINK & SOURCE TERM
 =  91.87    (WHEN MIN. R.F.=1)  AT K=   2, I=   1, J= 120

 MAXIMUM STEPSIZE WHICH MEETS STABILITY CRITERION OF THE DISPERSION TERM
 =  20.29    (WHEN MIN. R.F.=1)  AT K=   1, I=   1, J=  31
     1 CALLS TO GCG PACKAGE FOR TRANSPORT TIME STEP   4 IN FLOW TIME STEP  68 STRESS PERIOD   1
     6 TOTAL ITERATIONS
 
 SOLVING FOR HEAD 
 FLOW MODEL IS TRANSIENT
 FLOW MODEL CONTAINS CONSTANT-HEAD CELLS


 MAXIMUM STEPSIZE DURING WHICH ANY PARTICLE CANNOT MOVE MORE THAN ONE CELL
 =  4.362    (WHEN MIN. R.F.=1)  AT K=   4, I=   1, J=  60

 MAXIMUM STEPSIZE WHICH MEETS STABILITY CRITERION OF THE ADVECTION TERM
 (FOR PURE FINITE-DIFFERENCE OPTION, MIXELM=0) 
 =  2.957    (WHEN MIN. R.F.=1)  AT K=   2, I=   1, J=  43


 TOTAL NUMBER OF POINT SOURCES/SINKS PRESENT IN THE FLOW MODEL =    62

 MAXIMUM STEPSIZE WHICH MEETS STABILITY CRITERION OF THE SINK & SOURCE TERM
 =  91.72    (WHEN MIN. R.F.=1)  AT K=   2, I=   1, J= 120

 MAXIMUM STEPSIZE WHICH MEETS STABILITY CRITERION OF THE DISPERSION TERM
 =  20.29    (WHEN MIN. R.F.=1)  AT K=   1, I=   1, J=  31
     1 CALLS TO GCG PACKAGE FOR TRANSPORT TIME STEP   5 IN FLOW TIME STEP  68 STRESS PERIOD   1
     5 TOTAL ITERATIONS
  MAXIMUM CONCENTRATION CHANGES FOR EACH ITERATION:
  MAX. CHANGE LAYER,ROW,COL MAX. CHANGE LAYER,ROW,COL MAX. CHANGE LAYER,ROW,COL MAX. CHANGE LAYER,ROW,COL MAX. CHANGE LAYER,ROW,COL
 ------------------------------------------------------------------------------------------------------------------------------------
   0.2091E-01 (  2,  1, 62)  0.5131E-03 (  2,  1, 77)  0.1288E-04 (  3,  1, 77)  0.2925E-06 (  3,  1, 63)  0.1003E-07 (  5,  1, 80)


                                          ================================================
                                                         FROM TIME =   680.00     TO    690.00    

 
 SOLVING FOR HEAD 
 FLOW MODEL IS TRANSIENT
 FLOW MODEL CONTAINS CONSTANT-HEAD CELLS


 MAXIMUM STEPSIZE DURING WHICH ANY PARTICLE CANNOT MOVE MORE THAN ONE CELL
 =  4.363    (WHEN MIN. R.F.=1)  AT K=   4, I=   1, J=  60

 MAXIMUM STEPSIZE WHICH MEETS STABILITY CRITERION OF THE ADVECTION TERM
 (FOR PURE FINITE-DIFFERENCE OPTION, MIXELM=0) 
 =  3.019    (WHEN MIN. R.F.=1)  AT K=   2, I=   1, J=  43


 TOTAL NUMBER OF POINT SOURCES/SINKS PRESENT IN THE FLOW MODEL =    62

 MAXIMUM STEPSIZE WHICH MEETS STABILITY CRITERION OF THE SINK & SOURCE TERM
 =  95.57    (WHEN MIN. R.F.=1)  AT K=   2, I=   1, J= 120

 MAXIMUM STEPSIZE WHICH MEETS STABILITY CRITERION OF THE DISPERSION TERM
 =  20.29    (WHEN MIN. R.F.=1)  AT K=   1, I=   1, J=  31


     1 CALLS TO GCG PACKAGE FOR TRANSPORT TIME STEP   1 IN FLOW TIME STEP  69 STRESS PERIOD   1
     6 TOTAL ITERATIONS

 NO OUTPUT CONTROL FOR STRESS PERIOD    1   TIME STEP  69
 
 SOLVING FOR HEAD 
 FLOW MODEL IS TRANSIENT
 FLOW MODEL CONTAINS CONSTANT-HEAD CELLS


 MAXIMUM STEPSIZE DURING WHICH ANY PARTICLE CANNOT MOVE MORE THAN ONE CELL
 =  4.357    (WHEN MIN. R.F.=1)  AT K=   4, I=   1, J=  60

 MAXIMUM STEPSIZE WHICH MEETS STABILITY CRITERION OF THE ADVECTION TERM
 (FOR PURE FINITE-DIFFERENCE OPTION, MIXELM=0) 
 =  2.947    (WHEN MIN. R.F.=1)  AT K=   2, I=   1, J=  77


 TOTAL NUMBER OF POINT SOURCES/SINKS PRESENT IN THE FLOW MODEL =    62

 MAXIMUM STEPSIZE WHICH MEETS STABILITY CRITERION OF THE SINK & SOURCE TERM
 =  94.25    (WHEN MIN. R.F.=1)  AT K=   2, I=   1, J= 120

 MAXIMUM STEPSIZE WHICH MEETS STABILITY CRITERION OF THE DISPERSION TERM
 =  20.29    (WHEN MIN. R.F.=1)  AT K=   1, I=   1, J=  31
     1 CALLS TO GCG PACKAGE FOR TRANSPORT TIME STEP   2 IN FLOW TIME STEP  69 STRESS PERIOD   1
     6 TOTAL ITERATIONS
 
 SOLVING FOR HEAD 
 FLOW MODEL IS TRANSIENT
 FLOW MODEL CONTAINS CONSTANT-HEAD CELLS


 MAXIMUM STEPSIZE DURING WHICH ANY PARTICLE CANNOT MOVE MORE THAN ONE CELL
 =  4.349    (WHEN MIN. R.F.=1)  AT K=   4, I=   1, J=  60

 MAXIMUM STEPSIZE WHICH MEETS STABILITY CRITERION OF THE ADVECTION TERM
 (FOR PURE FINITE-DIFFERENCE OPTION, MIXELM=0) 
 =  2.886    (WHEN MIN. R.F.=1)  AT K=   2, I=   1, J=  77


 TOTAL NUMBER OF POINT SOURCES/SINKS PRESENT IN THE FLOW MODEL =    62

 MAXIMUM STEPSIZE WHICH MEETS STABILITY CRITERION OF THE SINK & SOURCE TERM
 =  94.74    (WHEN MIN. R.F.=1)  AT K=   2, I=   1, J= 120

 MAXIMUM STEPSIZE WHICH MEETS STABILITY CRITERION OF THE DISPERSION TERM
 =  20.29    (WHEN MIN. R.F.=1)  AT K=   1, I=   1, J=  31
     1 CALLS TO GCG PACKAGE FOR TRANSPORT TIME STEP   3 IN FLOW TIME STEP  69 STRESS PERIOD   1
     6 TOTAL ITERATIONS
 
 SOLVING FOR HEAD 
 FLOW MODEL IS TRANSIENT
 FLOW MODEL CONTAINS CONSTANT-HEAD CELLS


 MAXIMUM STEPSIZE DURING WHICH ANY PARTICLE CANNOT MOVE MORE THAN ONE CELL
 =  4.341    (WHEN MIN. R.F.=1)  AT K=   4, I=   1, J=  60

 MAXIMUM STEPSIZE WHICH MEETS STABILITY CRITERION OF THE ADVECTION TERM
 (FOR PURE FINITE-DIFFERENCE OPTION, MIXELM=0) 
 =  2.914    (WHEN MIN. R.F.=1)  AT K=   2, I=   1, J=  77


 TOTAL NUMBER OF POINT SOURCES/SINKS PRESENT IN THE FLOW MODEL =    62

 MAXIMUM STEPSIZE WHICH MEETS STABILITY CRITERION OF THE SINK & SOURCE TERM
 =  95.65    (WHEN MIN. R.F.=1)  AT K=   2, I=   1, J= 120

 MAXIMUM STEPSIZE WHICH MEETS STABILITY CRITERION OF THE DISPERSION TERM
 =  20.29    (WHEN MIN. R.F.=1)  AT K=   1, I=   1, J=  31
     1 CALLS TO GCG PACKAGE FOR TRANSPORT TIME STEP   4 IN FLOW TIME STEP  69 STRESS PERIOD   1
     6 TOTAL ITERATIONS
 
 SOLVING FOR HEAD 
 FLOW MODEL IS TRANSIENT
 FLOW MODEL CONTAINS CONSTANT-HEAD CELLS


 MAXIMUM STEPSIZE DURING WHICH ANY PARTICLE CANNOT MOVE MORE THAN ONE CELL
 =  4.334    (WHEN MIN. R.F.=1)  AT K=   4, I=   1, J=  60

 MAXIMUM STEPSIZE WHICH MEETS STABILITY CRITERION OF THE ADVECTION TERM
 (FOR PURE FINITE-DIFFERENCE OPTION, MIXELM=0) 
 =  2.982    (WHEN MIN. R.F.=1)  AT K=   2, I=   1, J=  44


 TOTAL NUMBER OF POINT SOURCES/SINKS PRESENT IN THE FLOW MODEL =    62

 MAXIMUM STEPSIZE WHICH MEETS STABILITY CRITERION OF THE SINK & SOURCE TERM
 =  94.23    (WHEN MIN. R.F.=1)  AT K=   2, I=   1, J= 120

 MAXIMUM STEPSIZE WHICH MEETS STABILITY CRITERION OF THE DISPERSION TERM
 =  20.29    (WHEN MIN. R.F.=1)  AT K=   1, I=   1, J=  31
     1 CALLS TO GCG PACKAGE FOR TRANSPORT TIME STEP   5 IN FLOW TIME STEP  69 STRESS PERIOD   1
     5 TOTAL ITERATIONS
  MAXIMUM CONCENTRATION CHANGES FOR EACH ITERATION:
  MAX. CHANGE LAYER,ROW,COL MAX. CHANGE LAYER,ROW,COL MAX. CHANGE LAYER,ROW,COL MAX. CHANGE LAYER,ROW,COL MAX. CHANGE LAYER,ROW,COL
 ------------------------------------------------------------------------------------------------------------------------------------
   0.2052E-01 (  2,  1, 78)  0.3797E-03 (  2,  1, 75)  0.8432E-05 (  3,  1, 46)  0.2245E-06 (  3,  1, 79)  0.4444E-08 (  3,  1, 80)


                                          ================================================
                                                         FROM TIME =   690.00     TO    700.00    

 
 SOLVING FOR HEAD 
 FLOW MODEL IS TRANSIENT
 FLOW MODEL CONTAINS CONSTANT-HEAD CELLS


 MAXIMUM STEPSIZE DURING WHICH ANY PARTICLE CANNOT MOVE MORE THAN ONE CELL
 =  4.335    (WHEN MIN. R.F.=1)  AT K=   4, I=   1, J=  60

 MAXIMUM STEPSIZE WHICH MEETS STABILITY CRITERION OF THE ADVECTION TERM
 (FOR PURE FINITE-DIFFERENCE OPTION, MIXELM=0) 
 =  2.996    (WHEN MIN. R.F.=1)  AT K=   2, I=   1, J=  44


 TOTAL NUMBER OF POINT SOURCES/SINKS PRESENT IN THE FLOW MODEL =    62

 MAXIMUM STEPSIZE WHICH MEETS STABILITY CRITERION OF THE SINK & SOURCE TERM
 =  96.59    (WHEN MIN. R.F.=1)  AT K=   2, I=   1, J= 120

 MAXIMUM STEPSIZE WHICH MEETS STABILITY CRITERION OF THE DISPERSION TERM
 =  20.29    (WHEN MIN. R.F.=1)  AT K=   1, I=   1, J=  31


     1 CALLS TO GCG PACKAGE FOR TRANSPORT TIME STEP   1 IN FLOW TIME STEP  70 STRESS PERIOD   1
     6 TOTAL ITERATIONS

 NO OUTPUT CONTROL FOR STRESS PERIOD    1   TIME STEP  70
 
 SOLVING FOR HEAD 
 FLOW MODEL IS TRANSIENT
 FLOW MODEL CONTAINS CONSTANT-HEAD CELLS


 MAXIMUM STEPSIZE DURING WHICH ANY PARTICLE CANNOT MOVE MORE THAN ONE CELL
 =  4.328    (WHEN MIN. R.F.=1)  AT K=   4, I=   1, J=  60

 MAXIMUM STEPSIZE WHICH MEETS STABILITY CRITERION OF THE ADVECTION TERM
 (FOR PURE FINITE-DIFFERENCE OPTION, MIXELM=0) 
 =  3.077    (WHEN MIN. R.F.=1)  AT K=   2, I=   1, J=  44


 TOTAL NUMBER OF POINT SOURCES/SINKS PRESENT IN THE FLOW MODEL =    62

 MAXIMUM STEPSIZE WHICH MEETS STABILITY CRITERION OF THE SINK & SOURCE TERM
 =  93.98    (WHEN MIN. R.F.=1)  AT K=   2, I=   1, J= 120

 MAXIMUM STEPSIZE WHICH MEETS STABILITY CRITERION OF THE DISPERSION TERM
 =  20.29    (WHEN MIN. R.F.=1)  AT K=   1, I=   1, J=  31
     1 CALLS TO GCG PACKAGE FOR TRANSPORT TIME STEP   2 IN FLOW TIME STEP  70 STRESS PERIOD   1
     6 TOTAL ITERATIONS
 
 SOLVING FOR HEAD 
 FLOW MODEL IS TRANSIENT
 FLOW MODEL CONTAINS CONSTANT-HEAD CELLS


 MAXIMUM STEPSIZE DURING WHICH ANY PARTICLE CANNOT MOVE MORE THAN ONE CELL
 =  4.320    (WHEN MIN. R.F.=1)  AT K=   4, I=   1, J=  60

 MAXIMUM STEPSIZE WHICH MEETS STABILITY CRITERION OF THE ADVECTION TERM
 (FOR PURE FINITE-DIFFERENCE OPTION, MIXELM=0) 
 =  3.287    (WHEN MIN. R.F.=1)  AT K=   2, I=   1, J=  44


 TOTAL NUMBER OF POINT SOURCES/SINKS PRESENT IN THE FLOW MODEL =    62

 MAXIMUM STEPSIZE WHICH MEETS STABILITY CRITERION OF THE SINK & SOURCE TERM
 =  93.53    (WHEN MIN. R.F.=1)  AT K=   2, I=   1, J= 120

 MAXIMUM STEPSIZE WHICH MEETS STABILITY CRITERION OF THE DISPERSION TERM
 =  20.29    (WHEN MIN. R.F.=1)  AT K=   1, I=   1, J=  31
     1 CALLS TO GCG PACKAGE FOR TRANSPORT TIME STEP   3 IN FLOW TIME STEP  70 STRESS PERIOD   1
     6 TOTAL ITERATIONS
 
 SOLVING FOR HEAD 
 FLOW MODEL IS TRANSIENT
 FLOW MODEL CONTAINS CONSTANT-HEAD CELLS


 MAXIMUM STEPSIZE DURING WHICH ANY PARTICLE CANNOT MOVE MORE THAN ONE CELL
 =  4.310    (WHEN MIN. R.F.=1)  AT K=   4, I=   1, J=  60

 MAXIMUM STEPSIZE WHICH MEETS STABILITY CRITERION OF THE ADVECTION TERM
 (FOR PURE FINITE-DIFFERENCE OPTION, MIXELM=0) 
 =  3.146    (WHEN MIN. R.F.=1)  AT K=   2, I=   1, J=  76


 TOTAL NUMBER OF POINT SOURCES/SINKS PRESENT IN THE FLOW MODEL =    62

 MAXIMUM STEPSIZE WHICH MEETS STABILITY CRITERION OF THE SINK & SOURCE TERM
 =  93.03    (WHEN MIN. R.F.=1)  AT K=   2, I=   1, J= 120

 MAXIMUM STEPSIZE WHICH MEETS STABILITY CRITERION OF THE DISPERSION TERM
 =  20.29    (WHEN MIN. R.F.=1)  AT K=   1, I=   1, J=  31
     1 CALLS TO GCG PACKAGE FOR TRANSPORT TIME STEP   4 IN FLOW TIME STEP  70 STRESS PERIOD   1
     6 TOTAL ITERATIONS
 
 SOLVING FOR HEAD 
 FLOW MODEL IS TRANSIENT
 FLOW MODEL CONTAINS CONSTANT-HEAD CELLS


 MAXIMUM STEPSIZE DURING WHICH ANY PARTICLE CANNOT MOVE MORE THAN ONE CELL
 =  4.300    (WHEN MIN. R.F.=1)  AT K=   4, I=   1, J=  60

 MAXIMUM STEPSIZE WHICH MEETS STABILITY CRITERION OF THE ADVECTION TERM
 (FOR PURE FINITE-DIFFERENCE OPTION, MIXELM=0) 
 =  3.099    (WHEN MIN. R.F.=1)  AT K=   2, I=   1, J=  76


 TOTAL NUMBER OF POINT SOURCES/SINKS PRESENT IN THE FLOW MODEL =    62

 MAXIMUM STEPSIZE WHICH MEETS STABILITY CRITERION OF THE SINK & SOURCE TERM
 =  91.10    (WHEN MIN. R.F.=1)  AT K=   2, I=   1, J= 120

 MAXIMUM STEPSIZE WHICH MEETS STABILITY CRITERION OF THE DISPERSION TERM
 =  20.29    (WHEN MIN. R.F.=1)  AT K=   1, I=   1, J=  31
     1 CALLS TO GCG PACKAGE FOR TRANSPORT TIME STEP   5 IN FLOW TIME STEP  70 STRESS PERIOD   1
     4 TOTAL ITERATIONS
  MAXIMUM CONCENTRATION CHANGES FOR EACH ITERATION:
  MAX. CHANGE LAYER,ROW,COL MAX. CHANGE LAYER,ROW,COL MAX. CHANGE LAYER,ROW,COL MAX. CHANGE LAYER,ROW,COL MAX. CHANGE LAYER,ROW,COL
 ------------------------------------------------------------------------------------------------------------------------------------
   0.1195E-01 (  2,  1, 77)  0.1437E-03 (  2,  1, 45)  0.2340E-05 (  2,  1, 78)  0.3965E-07 (  3,  1, 78)


                                          ================================================
                                                         FROM TIME =   700.00     TO    710.00    

 
 SOLVING FOR HEAD 
 FLOW MODEL IS TRANSIENT
 FLOW MODEL CONTAINS CONSTANT-HEAD CELLS


 MAXIMUM STEPSIZE DURING WHICH ANY PARTICLE CANNOT MOVE MORE THAN ONE CELL
 =  4.301    (WHEN MIN. R.F.=1)  AT K=   4, I=   1, J=  60

 MAXIMUM STEPSIZE WHICH MEETS STABILITY CRITERION OF THE ADVECTION TERM
 (FOR PURE FINITE-DIFFERENCE OPTION, MIXELM=0) 
 =  3.116    (WHEN MIN. R.F.=1)  AT K=   2, I=   1, J=  76


 TOTAL NUMBER OF POINT SOURCES/SINKS PRESENT IN THE FLOW MODEL =    62

 MAXIMUM STEPSIZE WHICH MEETS STABILITY CRITERION OF THE SINK & SOURCE TERM
 =  94.63    (WHEN MIN. R.F.=1)  AT K=   2, I=   1, J= 120

 MAXIMUM STEPSIZE WHICH MEETS STABILITY CRITERION OF THE DISPERSION TERM
 =  20.29    (WHEN MIN. R.F.=1)  AT K=   1, I=   1, J=  31


     1 CALLS TO GCG PACKAGE FOR TRANSPORT TIME STEP   1 IN FLOW TIME STEP  71 STRESS PERIOD   1
     6 TOTAL ITERATIONS

 NO OUTPUT CONTROL FOR STRESS PERIOD    1   TIME STEP  71
 
 SOLVING FOR HEAD 
 FLOW MODEL IS TRANSIENT
 FLOW MODEL CONTAINS CONSTANT-HEAD CELLS


 MAXIMUM STEPSIZE DURING WHICH ANY PARTICLE CANNOT MOVE MORE THAN ONE CELL
 =  4.294    (WHEN MIN. R.F.=1)  AT K=   4, I=   1, J=  60

 MAXIMUM STEPSIZE WHICH MEETS STABILITY CRITERION OF THE ADVECTION TERM
 (FOR PURE FINITE-DIFFERENCE OPTION, MIXELM=0) 
 =  3.185    (WHEN MIN. R.F.=1)  AT K=   2, I=   1, J=  45


 TOTAL NUMBER OF POINT SOURCES/SINKS PRESENT IN THE FLOW MODEL =    62

 MAXIMUM STEPSIZE WHICH MEETS STABILITY CRITERION OF THE SINK & SOURCE TERM
 =  91.25    (WHEN MIN. R.F.=1)  AT K=   2, I=   1, J= 120

 MAXIMUM STEPSIZE WHICH MEETS STABILITY CRITERION OF THE DISPERSION TERM
 =  20.29    (WHEN MIN. R.F.=1)  AT K=   1, I=   1, J=  31
     1 CALLS TO GCG PACKAGE FOR TRANSPORT TIME STEP   2 IN FLOW TIME STEP  71 STRESS PERIOD   1
     6 TOTAL ITERATIONS
 
 SOLVING FOR HEAD 
 FLOW MODEL IS TRANSIENT
 FLOW MODEL CONTAINS CONSTANT-HEAD CELLS


 MAXIMUM STEPSIZE DURING WHICH ANY PARTICLE CANNOT MOVE MORE THAN ONE CELL
 =  4.287    (WHEN MIN. R.F.=1)  AT K=   4, I=   1, J=  60

 MAXIMUM STEPSIZE WHICH MEETS STABILITY CRITERION OF THE ADVECTION TERM
 (FOR PURE FINITE-DIFFERENCE OPTION, MIXELM=0) 
 =  3.242    (WHEN MIN. R.F.=1)  AT K=   2, I=   1, J=  45


 TOTAL NUMBER OF POINT SOURCES/SINKS PRESENT IN THE FLOW MODEL =    62

 MAXIMUM STEPSIZE WHICH MEETS STABILITY CRITERION OF THE SINK & SOURCE TERM
 =  89.64    (WHEN MIN. R.F.=1)  AT K=   2, I=   1, J= 120

 MAXIMUM STEPSIZE WHICH MEETS STABILITY CRITERION OF THE DISPERSION TERM
 =  20.29    (WHEN MIN. R.F.=1)  AT K=   1, I=   1, J=  31
     1 CALLS TO GCG PACKAGE FOR TRANSPORT TIME STEP   3 IN FLOW TIME STEP  71 STRESS PERIOD   1
     6 TOTAL ITERATIONS
 
 SOLVING FOR HEAD 
 FLOW MODEL IS TRANSIENT
 FLOW MODEL CONTAINS CONSTANT-HEAD CELLS


 MAXIMUM STEPSIZE DURING WHICH ANY PARTICLE CANNOT MOVE MORE THAN ONE CELL
 =  4.279    (WHEN MIN. R.F.=1)  AT K=   4, I=   1, J=  60

 MAXIMUM STEPSIZE WHICH MEETS STABILITY CRITERION OF THE ADVECTION TERM
 (FOR PURE FINITE-DIFFERENCE OPTION, MIXELM=0) 
 =  3.425    (WHEN MIN. R.F.=1)  AT K=   2, I=   1, J=  45


 TOTAL NUMBER OF POINT SOURCES/SINKS PRESENT IN THE FLOW MODEL =    62

 MAXIMUM STEPSIZE WHICH MEETS STABILITY CRITERION OF THE SINK & SOURCE TERM
 =  88.06    (WHEN MIN. R.F.=1)  AT K=   2, I=   1, J= 120

 MAXIMUM STEPSIZE WHICH MEETS STABILITY CRITERION OF THE DISPERSION TERM
 =  20.29    (WHEN MIN. R.F.=1)  AT K=   1, I=   1, J=  31
     1 CALLS TO GCG PACKAGE FOR TRANSPORT TIME STEP   4 IN FLOW TIME STEP  71 STRESS PERIOD   1
     6 TOTAL ITERATIONS
 
 SOLVING FOR HEAD 
 FLOW MODEL IS TRANSIENT
 FLOW MODEL CONTAINS CONSTANT-HEAD CELLS


 MAXIMUM STEPSIZE DURING WHICH ANY PARTICLE CANNOT MOVE MORE THAN ONE CELL
 =  4.241    (WHEN MIN. R.F.=1)  AT K=   4, I=   1, J=  74

 MAXIMUM STEPSIZE WHICH MEETS STABILITY CRITERION OF THE ADVECTION TERM
 (FOR PURE FINITE-DIFFERENCE OPTION, MIXELM=0) 
 =  3.157    (WHEN MIN. R.F.=1)  AT K=   2, I=   1, J=  75


 TOTAL NUMBER OF POINT SOURCES/SINKS PRESENT IN THE FLOW MODEL =    62

 MAXIMUM STEPSIZE WHICH MEETS STABILITY CRITERION OF THE SINK & SOURCE TERM
 =  85.59    (WHEN MIN. R.F.=1)  AT K=   2, I=   1, J= 120

 MAXIMUM STEPSIZE WHICH MEETS STABILITY CRITERION OF THE DISPERSION TERM
 =  20.29    (WHEN MIN. R.F.=1)  AT K=   1, I=   1, J=  31
     1 CALLS TO GCG PACKAGE FOR TRANSPORT TIME STEP   5 IN FLOW TIME STEP  71 STRESS PERIOD   1
     4 TOTAL ITERATIONS
  MAXIMUM CONCENTRATION CHANGES FOR EACH ITERATION:
  MAX. CHANGE LAYER,ROW,COL MAX. CHANGE LAYER,ROW,COL MAX. CHANGE LAYER,ROW,COL MAX. CHANGE LAYER,ROW,COL MAX. CHANGE LAYER,ROW,COL
 ------------------------------------------------------------------------------------------------------------------------------------
   0.8029E-02 (  2,  1, 62)  0.6101E-04 (  2,  1, 62)  0.6302E-06 (  3,  1, 61)  0.8026E-08 (  3,  1, 63)


                                          ================================================
                                                         FROM TIME =   710.00     TO    720.00    

 
 SOLVING FOR HEAD 
 FLOW MODEL IS TRANSIENT
 FLOW MODEL CONTAINS CONSTANT-HEAD CELLS


 MAXIMUM STEPSIZE DURING WHICH ANY PARTICLE CANNOT MOVE MORE THAN ONE CELL
 =  4.199    (WHEN MIN. R.F.=1)  AT K=   4, I=   1, J=  74

 MAXIMUM STEPSIZE WHICH MEETS STABILITY CRITERION OF THE ADVECTION TERM
 (FOR PURE FINITE-DIFFERENCE OPTION, MIXELM=0) 
 =  3.122    (WHEN MIN. R.F.=1)  AT K=   2, I=   1, J=  75


 TOTAL NUMBER OF POINT SOURCES/SINKS PRESENT IN THE FLOW MODEL =    62

 MAXIMUM STEPSIZE WHICH MEETS STABILITY CRITERION OF THE SINK & SOURCE TERM
 =  88.76    (WHEN MIN. R.F.=1)  AT K=   2, I=   1, J= 120

 MAXIMUM STEPSIZE WHICH MEETS STABILITY CRITERION OF THE DISPERSION TERM
 =  20.29    (WHEN MIN. R.F.=1)  AT K=   1, I=   1, J=  31


     1 CALLS TO GCG PACKAGE FOR TRANSPORT TIME STEP   1 IN FLOW TIME STEP  72 STRESS PERIOD   1
     6 TOTAL ITERATIONS

 NO OUTPUT CONTROL FOR STRESS PERIOD    1   TIME STEP  72
 
 SOLVING FOR HEAD 
 FLOW MODEL IS TRANSIENT
 FLOW MODEL CONTAINS CONSTANT-HEAD CELLS


 MAXIMUM STEPSIZE DURING WHICH ANY PARTICLE CANNOT MOVE MORE THAN ONE CELL
 =  4.022    (WHEN MIN. R.F.=1)  AT K=   4, I=   1, J=  74

 MAXIMUM STEPSIZE WHICH MEETS STABILITY CRITERION OF THE ADVECTION TERM
 (FOR PURE FINITE-DIFFERENCE OPTION, MIXELM=0) 
 =  3.024    (WHEN MIN. R.F.=1)  AT K=   2, I=   1, J=  75


 TOTAL NUMBER OF POINT SOURCES/SINKS PRESENT IN THE FLOW MODEL =    62

 MAXIMUM STEPSIZE WHICH MEETS STABILITY CRITERION OF THE SINK & SOURCE TERM
 =  85.50    (WHEN MIN. R.F.=1)  AT K=   2, I=   1, J= 120

 MAXIMUM STEPSIZE WHICH MEETS STABILITY CRITERION OF THE DISPERSION TERM
 =  20.29    (WHEN MIN. R.F.=1)  AT K=   1, I=   1, J=  31
     1 CALLS TO GCG PACKAGE FOR TRANSPORT TIME STEP   2 IN FLOW TIME STEP  72 STRESS PERIOD   1
     6 TOTAL ITERATIONS
 
 SOLVING FOR HEAD 
 FLOW MODEL IS TRANSIENT
 FLOW MODEL CONTAINS CONSTANT-HEAD CELLS


 MAXIMUM STEPSIZE DURING WHICH ANY PARTICLE CANNOT MOVE MORE THAN ONE CELL
 =  3.875    (WHEN MIN. R.F.=1)  AT K=   4, I=   1, J=  74

 MAXIMUM STEPSIZE WHICH MEETS STABILITY CRITERION OF THE ADVECTION TERM
 (FOR PURE FINITE-DIFFERENCE OPTION, MIXELM=0) 
 =  3.020    (WHEN MIN. R.F.=1)  AT K=   2, I=   1, J=  75


 TOTAL NUMBER OF POINT SOURCES/SINKS PRESENT IN THE FLOW MODEL =    62

 MAXIMUM STEPSIZE WHICH MEETS STABILITY CRITERION OF THE SINK & SOURCE TERM
 =  84.77    (WHEN MIN. R.F.=1)  AT K=   2, I=   1, J= 120

 MAXIMUM STEPSIZE WHICH MEETS STABILITY CRITERION OF THE DISPERSION TERM
 =  20.29    (WHEN MIN. R.F.=1)  AT K=   1, I=   1, J=  31
     1 CALLS TO GCG PACKAGE FOR TRANSPORT TIME STEP   3 IN FLOW TIME STEP  72 STRESS PERIOD   1
     6 TOTAL ITERATIONS
 
 SOLVING FOR HEAD 
 FLOW MODEL IS TRANSIENT
 FLOW MODEL CONTAINS CONSTANT-HEAD CELLS


 MAXIMUM STEPSIZE DURING WHICH ANY PARTICLE CANNOT MOVE MORE THAN ONE CELL
 =  3.771    (WHEN MIN. R.F.=1)  AT K=   4, I=   1, J=  74

 MAXIMUM STEPSIZE WHICH MEETS STABILITY CRITERION OF THE ADVECTION TERM
 (FOR PURE FINITE-DIFFERENCE OPTION, MIXELM=0) 
 =  3.123    (WHEN MIN. R.F.=1)  AT K=   2, I=   1, J=  75


 TOTAL NUMBER OF POINT SOURCES/SINKS PRESENT IN THE FLOW MODEL =    62

 MAXIMUM STEPSIZE WHICH MEETS STABILITY CRITERION OF THE SINK & SOURCE TERM
 =  82.82    (WHEN MIN. R.F.=1)  AT K=   2, I=   1, J= 120

 MAXIMUM STEPSIZE WHICH MEETS STABILITY CRITERION OF THE DISPERSION TERM
 =  20.29    (WHEN MIN. R.F.=1)  AT K=   1, I=   1, J=  31
     1 CALLS TO GCG PACKAGE FOR TRANSPORT TIME STEP   4 IN FLOW TIME STEP  72 STRESS PERIOD   1
     6 TOTAL ITERATIONS
 
 SOLVING FOR HEAD 
 FLOW MODEL IS TRANSIENT
 FLOW MODEL CONTAINS CONSTANT-HEAD CELLS


 MAXIMUM STEPSIZE DURING WHICH ANY PARTICLE CANNOT MOVE MORE THAN ONE CELL
 =  3.690    (WHEN MIN. R.F.=1)  AT K=   4, I=   1, J=  74

 MAXIMUM STEPSIZE WHICH MEETS STABILITY CRITERION OF THE ADVECTION TERM
 (FOR PURE FINITE-DIFFERENCE OPTION, MIXELM=0) 
 =  3.113    (WHEN MIN. R.F.=1)  AT K=   2, I=   1, J=  81


 TOTAL NUMBER OF POINT SOURCES/SINKS PRESENT IN THE FLOW MODEL =    62

 MAXIMUM STEPSIZE WHICH MEETS STABILITY CRITERION OF THE SINK & SOURCE TERM
 =  81.74    (WHEN MIN. R.F.=1)  AT K=   2, I=   1, J= 120

 MAXIMUM STEPSIZE WHICH MEETS STABILITY CRITERION OF THE DISPERSION TERM
 =  20.29    (WHEN MIN. R.F.=1)  AT K=   1, I=   1, J=  31
     1 CALLS TO GCG PACKAGE FOR TRANSPORT TIME STEP   5 IN FLOW TIME STEP  72 STRESS PERIOD   1
     4 TOTAL ITERATIONS
  MAXIMUM CONCENTRATION CHANGES FOR EACH ITERATION:
  MAX. CHANGE LAYER,ROW,COL MAX. CHANGE LAYER,ROW,COL MAX. CHANGE LAYER,ROW,COL MAX. CHANGE LAYER,ROW,COL MAX. CHANGE LAYER,ROW,COL
 ------------------------------------------------------------------------------------------------------------------------------------
   0.1250E-01 (  2,  1, 76)  0.1583E-03 (  2,  1, 82)  0.2562E-05 (  2,  1, 83)  0.4287E-07 (  3,  1, 83)


                                          ================================================
                                                         FROM TIME =   720.00     TO    730.00    

 
 SOLVING FOR HEAD 
 FLOW MODEL IS TRANSIENT
 FLOW MODEL CONTAINS CONSTANT-HEAD CELLS


 MAXIMUM STEPSIZE DURING WHICH ANY PARTICLE CANNOT MOVE MORE THAN ONE CELL
 =  3.666    (WHEN MIN. R.F.=1)  AT K=   4, I=   1, J=  74

 MAXIMUM STEPSIZE WHICH MEETS STABILITY CRITERION OF THE ADVECTION TERM
 (FOR PURE FINITE-DIFFERENCE OPTION, MIXELM=0) 
 =  3.090    (WHEN MIN. R.F.=1)  AT K=   2, I=   1, J=  81


 TOTAL NUMBER OF POINT SOURCES/SINKS PRESENT IN THE FLOW MODEL =    62

 MAXIMUM STEPSIZE WHICH MEETS STABILITY CRITERION OF THE SINK & SOURCE TERM
 =  84.79    (WHEN MIN. R.F.=1)  AT K=   2, I=   1, J= 120

 MAXIMUM STEPSIZE WHICH MEETS STABILITY CRITERION OF THE DISPERSION TERM
 =  20.29    (WHEN MIN. R.F.=1)  AT K=   1, I=   1, J=  31


     1 CALLS TO GCG PACKAGE FOR TRANSPORT TIME STEP   1 IN FLOW TIME STEP  73 STRESS PERIOD   1
     6 TOTAL ITERATIONS

 NO OUTPUT CONTROL FOR STRESS PERIOD    1   TIME STEP  73
 
 SOLVING FOR HEAD 
 FLOW MODEL IS TRANSIENT
 FLOW MODEL CONTAINS CONSTANT-HEAD CELLS


 MAXIMUM STEPSIZE DURING WHICH ANY PARTICLE CANNOT MOVE MORE THAN ONE CELL
 =  3.613    (WHEN MIN. R.F.=1)  AT K=   4, I=   1, J=  74

 MAXIMUM STEPSIZE WHICH MEETS STABILITY CRITERION OF THE ADVECTION TERM
 (FOR PURE FINITE-DIFFERENCE OPTION, MIXELM=0) 
 =  2.985    (WHEN MIN. R.F.=1)  AT K=   2, I=   1, J=  47


 TOTAL NUMBER OF POINT SOURCES/SINKS PRESENT IN THE FLOW MODEL =    62

 MAXIMUM STEPSIZE WHICH MEETS STABILITY CRITERION OF THE SINK & SOURCE TERM
 =  81.36    (WHEN MIN. R.F.=1)  AT K=   2, I=   1, J= 120

 MAXIMUM STEPSIZE WHICH MEETS STABILITY CRITERION OF THE DISPERSION TERM
 =  20.29    (WHEN MIN. R.F.=1)  AT K=   1, I=   1, J=  31
     1 CALLS TO GCG PACKAGE FOR TRANSPORT TIME STEP   2 IN FLOW TIME STEP  73 STRESS PERIOD   1
     6 TOTAL ITERATIONS
 
 SOLVING FOR HEAD 
 FLOW MODEL IS TRANSIENT
 FLOW MODEL CONTAINS CONSTANT-HEAD CELLS


 MAXIMUM STEPSIZE DURING WHICH ANY PARTICLE CANNOT MOVE MORE THAN ONE CELL
 =  3.578    (WHEN MIN. R.F.=1)  AT K=   4, I=   1, J=  74

 MAXIMUM STEPSIZE WHICH MEETS STABILITY CRITERION OF THE ADVECTION TERM
 (FOR PURE FINITE-DIFFERENCE OPTION, MIXELM=0) 
 =  2.925    (WHEN MIN. R.F.=1)  AT K=   2, I=   1, J=  47


 TOTAL NUMBER OF POINT SOURCES/SINKS PRESENT IN THE FLOW MODEL =    62

 MAXIMUM STEPSIZE WHICH MEETS STABILITY CRITERION OF THE SINK & SOURCE TERM
 =  79.82    (WHEN MIN. R.F.=1)  AT K=   2, I=   1, J= 120

 MAXIMUM STEPSIZE WHICH MEETS STABILITY CRITERION OF THE DISPERSION TERM
 =  20.29    (WHEN MIN. R.F.=1)  AT K=   1, I=   1, J=  31
     1 CALLS TO GCG PACKAGE FOR TRANSPORT TIME STEP   3 IN FLOW TIME STEP  73 STRESS PERIOD   1
     6 TOTAL ITERATIONS
 
 SOLVING FOR HEAD 
 FLOW MODEL IS TRANSIENT
 FLOW MODEL CONTAINS CONSTANT-HEAD CELLS


 MAXIMUM STEPSIZE DURING WHICH ANY PARTICLE CANNOT MOVE MORE THAN ONE CELL
 =  3.565    (WHEN MIN. R.F.=1)  AT K=   4, I=   1, J=  74

 MAXIMUM STEPSIZE WHICH MEETS STABILITY CRITERION OF THE ADVECTION TERM
 (FOR PURE FINITE-DIFFERENCE OPTION, MIXELM=0) 
 =  2.862    (WHEN MIN. R.F.=1)  AT K=   2, I=   1, J=  80


 TOTAL NUMBER OF POINT SOURCES/SINKS PRESENT IN THE FLOW MODEL =    62

 MAXIMUM STEPSIZE WHICH MEETS STABILITY CRITERION OF THE SINK & SOURCE TERM
 =  78.89    (WHEN MIN. R.F.=1)  AT K=   2, I=   1, J= 120

 MAXIMUM STEPSIZE WHICH MEETS STABILITY CRITERION OF THE DISPERSION TERM
 =  20.29    (WHEN MIN. R.F.=1)  AT K=   1, I=   1, J=  31
     1 CALLS TO GCG PACKAGE FOR TRANSPORT TIME STEP   4 IN FLOW TIME STEP  73 STRESS PERIOD   1
     6 TOTAL ITERATIONS
 
 SOLVING FOR HEAD 
 FLOW MODEL IS TRANSIENT
 FLOW MODEL CONTAINS CONSTANT-HEAD CELLS


 MAXIMUM STEPSIZE DURING WHICH ANY PARTICLE CANNOT MOVE MORE THAN ONE CELL
 =  3.575    (WHEN MIN. R.F.=1)  AT K=   4, I=   1, J=  74

 MAXIMUM STEPSIZE WHICH MEETS STABILITY CRITERION OF THE ADVECTION TERM
 (FOR PURE FINITE-DIFFERENCE OPTION, MIXELM=0) 
 =  2.763    (WHEN MIN. R.F.=1)  AT K=   2, I=   1, J=  80


 TOTAL NUMBER OF POINT SOURCES/SINKS PRESENT IN THE FLOW MODEL =    62

 MAXIMUM STEPSIZE WHICH MEETS STABILITY CRITERION OF THE SINK & SOURCE TERM
 =  78.48    (WHEN MIN. R.F.=1)  AT K=   2, I=   1, J= 120

 MAXIMUM STEPSIZE WHICH MEETS STABILITY CRITERION OF THE DISPERSION TERM
 =  20.29    (WHEN MIN. R.F.=1)  AT K=   1, I=   1, J=  31
     1 CALLS TO GCG PACKAGE FOR TRANSPORT TIME STEP   5 IN FLOW TIME STEP  73 STRESS PERIOD   1
     5 TOTAL ITERATIONS
  MAXIMUM CONCENTRATION CHANGES FOR EACH ITERATION:
  MAX. CHANGE LAYER,ROW,COL MAX. CHANGE LAYER,ROW,COL MAX. CHANGE LAYER,ROW,COL MAX. CHANGE LAYER,ROW,COL MAX. CHANGE LAYER,ROW,COL
 ------------------------------------------------------------------------------------------------------------------------------------
   0.1420E-01 (  2,  1, 62)  0.1930E-03 (  2,  1, 81)  0.4810E-05 (  3,  1, 79)  0.1160E-06 (  3,  1, 77)  0.2286E-08 (  4,  1, 77)


                                          ================================================
                                                         FROM TIME =   730.00     TO    740.00    

 
 SOLVING FOR HEAD 
 FLOW MODEL IS TRANSIENT
 FLOW MODEL CONTAINS CONSTANT-HEAD CELLS


 MAXIMUM STEPSIZE DURING WHICH ANY PARTICLE CANNOT MOVE MORE THAN ONE CELL
 =  3.588    (WHEN MIN. R.F.=1)  AT K=   4, I=   1, J=  74

 MAXIMUM STEPSIZE WHICH MEETS STABILITY CRITERION OF THE ADVECTION TERM
 (FOR PURE FINITE-DIFFERENCE OPTION, MIXELM=0) 
 =  2.761    (WHEN MIN. R.F.=1)  AT K=   2, I=   1, J=  80


 TOTAL NUMBER OF POINT SOURCES/SINKS PRESENT IN THE FLOW MODEL =    62

 MAXIMUM STEPSIZE WHICH MEETS STABILITY CRITERION OF THE SINK & SOURCE TERM
 =  83.97    (WHEN MIN. R.F.=1)  AT K=   2, I=   1, J= 120

 MAXIMUM STEPSIZE WHICH MEETS STABILITY CRITERION OF THE DISPERSION TERM
 =  20.29    (WHEN MIN. R.F.=1)  AT K=   1, I=   1, J=  31


     1 CALLS TO GCG PACKAGE FOR TRANSPORT TIME STEP   1 IN FLOW TIME STEP  74 STRESS PERIOD   1
     5 TOTAL ITERATIONS

 NO OUTPUT CONTROL FOR STRESS PERIOD    1   TIME STEP  74
 
 SOLVING FOR HEAD 
 FLOW MODEL IS TRANSIENT
 FLOW MODEL CONTAINS CONSTANT-HEAD CELLS


 MAXIMUM STEPSIZE DURING WHICH ANY PARTICLE CANNOT MOVE MORE THAN ONE CELL
 =  3.633    (WHEN MIN. R.F.=1)  AT K=   4, I=   1, J=  74

 MAXIMUM STEPSIZE WHICH MEETS STABILITY CRITERION OF THE ADVECTION TERM
 (FOR PURE FINITE-DIFFERENCE OPTION, MIXELM=0) 
 =  2.860    (WHEN MIN. R.F.=1)  AT K=   2, I=   1, J=  80


 TOTAL NUMBER OF POINT SOURCES/SINKS PRESENT IN THE FLOW MODEL =    62

 MAXIMUM STEPSIZE WHICH MEETS STABILITY CRITERION OF THE SINK & SOURCE TERM
 =  80.85    (WHEN MIN. R.F.=1)  AT K=   2, I=   1, J= 120

 MAXIMUM STEPSIZE WHICH MEETS STABILITY CRITERION OF THE DISPERSION TERM
 =  20.29    (WHEN MIN. R.F.=1)  AT K=   1, I=   1, J=  31
     1 CALLS TO GCG PACKAGE FOR TRANSPORT TIME STEP   2 IN FLOW TIME STEP  74 STRESS PERIOD   1
     6 TOTAL ITERATIONS
 
 SOLVING FOR HEAD 
 FLOW MODEL IS TRANSIENT
 FLOW MODEL CONTAINS CONSTANT-HEAD CELLS


 MAXIMUM STEPSIZE DURING WHICH ANY PARTICLE CANNOT MOVE MORE THAN ONE CELL
 =  3.697    (WHEN MIN. R.F.=1)  AT K=   4, I=   1, J=  74

 MAXIMUM STEPSIZE WHICH MEETS STABILITY CRITERION OF THE ADVECTION TERM
 (FOR PURE FINITE-DIFFERENCE OPTION, MIXELM=0) 
 =  3.062    (WHEN MIN. R.F.=1)  AT K=   2, I=   1, J=  79


 TOTAL NUMBER OF POINT SOURCES/SINKS PRESENT IN THE FLOW MODEL =    62

 MAXIMUM STEPSIZE WHICH MEETS STABILITY CRITERION OF THE SINK & SOURCE TERM
 =  81.28    (WHEN MIN. R.F.=1)  AT K=   2, I=   1, J= 120

 MAXIMUM STEPSIZE WHICH MEETS STABILITY CRITERION OF THE DISPERSION TERM
 =  20.29    (WHEN MIN. R.F.=1)  AT K=   1, I=   1, J=  31
     1 CALLS TO GCG PACKAGE FOR TRANSPORT TIME STEP   3 IN FLOW TIME STEP  74 STRESS PERIOD   1
     6 TOTAL ITERATIONS
 
 SOLVING FOR HEAD 
 FLOW MODEL IS TRANSIENT
 FLOW MODEL CONTAINS CONSTANT-HEAD CELLS


 MAXIMUM STEPSIZE DURING WHICH ANY PARTICLE CANNOT MOVE MORE THAN ONE CELL
 =  3.760    (WHEN MIN. R.F.=1)  AT K=   5, I=   1, J=  74

 MAXIMUM STEPSIZE WHICH MEETS STABILITY CRITERION OF THE ADVECTION TERM
 (FOR PURE FINITE-DIFFERENCE OPTION, MIXELM=0) 
 =  2.813    (WHEN MIN. R.F.=1)  AT K=   2, I=   1, J=  79


 TOTAL NUMBER OF POINT SOURCES/SINKS PRESENT IN THE FLOW MODEL =    62

 MAXIMUM STEPSIZE WHICH MEETS STABILITY CRITERION OF THE SINK & SOURCE TERM
 =  81.07    (WHEN MIN. R.F.=1)  AT K=   2, I=   1, J= 120

 MAXIMUM STEPSIZE WHICH MEETS STABILITY CRITERION OF THE DISPERSION TERM
 =  20.29    (WHEN MIN. R.F.=1)  AT K=   1, I=   1, J=  31
     1 CALLS TO GCG PACKAGE FOR TRANSPORT TIME STEP   4 IN FLOW TIME STEP  74 STRESS PERIOD   1
     6 TOTAL ITERATIONS
 
 SOLVING FOR HEAD 
 FLOW MODEL IS TRANSIENT
 FLOW MODEL CONTAINS CONSTANT-HEAD CELLS


 MAXIMUM STEPSIZE DURING WHICH ANY PARTICLE CANNOT MOVE MORE THAN ONE CELL
 =  3.842    (WHEN MIN. R.F.=1)  AT K=   5, I=   1, J=  74

 MAXIMUM STEPSIZE WHICH MEETS STABILITY CRITERION OF THE ADVECTION TERM
 (FOR PURE FINITE-DIFFERENCE OPTION, MIXELM=0) 
 =  2.685    (WHEN MIN. R.F.=1)  AT K=   2, I=   1, J=  79


 TOTAL NUMBER OF POINT SOURCES/SINKS PRESENT IN THE FLOW MODEL =    62

 MAXIMUM STEPSIZE WHICH MEETS STABILITY CRITERION OF THE SINK & SOURCE TERM
 =  80.77    (WHEN MIN. R.F.=1)  AT K=   2, I=   1, J= 120

 MAXIMUM STEPSIZE WHICH MEETS STABILITY CRITERION OF THE DISPERSION TERM
 =  20.29    (WHEN MIN. R.F.=1)  AT K=   1, I=   1, J=  31
     1 CALLS TO GCG PACKAGE FOR TRANSPORT TIME STEP   5 IN FLOW TIME STEP  74 STRESS PERIOD   1
     5 TOTAL ITERATIONS
  MAXIMUM CONCENTRATION CHANGES FOR EACH ITERATION:
  MAX. CHANGE LAYER,ROW,COL MAX. CHANGE LAYER,ROW,COL MAX. CHANGE LAYER,ROW,COL MAX. CHANGE LAYER,ROW,COL MAX. CHANGE LAYER,ROW,COL
 ------------------------------------------------------------------------------------------------------------------------------------
   0.2230E-01 (  2,  1, 80)  0.4676E-03 (  2,  1, 49)  0.1587E-04 (  2,  1, 76)  0.7535E-06 (  3,  1, 76)  0.1752E-07 (  4,  1, 76)


                                          ================================================
                                                         FROM TIME =   740.00     TO    750.00    

 
 SOLVING FOR HEAD 
 FLOW MODEL IS TRANSIENT
 FLOW MODEL CONTAINS CONSTANT-HEAD CELLS


 MAXIMUM STEPSIZE DURING WHICH ANY PARTICLE CANNOT MOVE MORE THAN ONE CELL
 =  3.909    (WHEN MIN. R.F.=1)  AT K=   5, I=   1, J=  74

 MAXIMUM STEPSIZE WHICH MEETS STABILITY CRITERION OF THE ADVECTION TERM
 (FOR PURE FINITE-DIFFERENCE OPTION, MIXELM=0) 
 =  2.683    (WHEN MIN. R.F.=1)  AT K=   2, I=   1, J=  79


 TOTAL NUMBER OF POINT SOURCES/SINKS PRESENT IN THE FLOW MODEL =    62

 MAXIMUM STEPSIZE WHICH MEETS STABILITY CRITERION OF THE SINK & SOURCE TERM
 =  84.25    (WHEN MIN. R.F.=1)  AT K=   2, I=   1, J= 120

 MAXIMUM STEPSIZE WHICH MEETS STABILITY CRITERION OF THE DISPERSION TERM
 =  20.29    (WHEN MIN. R.F.=1)  AT K=   1, I=   1, J=  31


     1 CALLS TO GCG PACKAGE FOR TRANSPORT TIME STEP   1 IN FLOW TIME STEP  75 STRESS PERIOD   1
     5 TOTAL ITERATIONS

 NO OUTPUT CONTROL FOR STRESS PERIOD    1   TIME STEP  75
 
 SOLVING FOR HEAD 
 FLOW MODEL IS TRANSIENT
 FLOW MODEL CONTAINS CONSTANT-HEAD CELLS


 MAXIMUM STEPSIZE DURING WHICH ANY PARTICLE CANNOT MOVE MORE THAN ONE CELL
 =  4.020    (WHEN MIN. R.F.=1)  AT K=   5, I=   1, J=  74

 MAXIMUM STEPSIZE WHICH MEETS STABILITY CRITERION OF THE ADVECTION TERM
 (FOR PURE FINITE-DIFFERENCE OPTION, MIXELM=0) 
 =  2.754    (WHEN MIN. R.F.=1)  AT K=   2, I=   1, J=  79


 TOTAL NUMBER OF POINT SOURCES/SINKS PRESENT IN THE FLOW MODEL =    62

 MAXIMUM STEPSIZE WHICH MEETS STABILITY CRITERION OF THE SINK & SOURCE TERM
 =  82.78    (WHEN MIN. R.F.=1)  AT K=   2, I=   1, J= 120

 MAXIMUM STEPSIZE WHICH MEETS STABILITY CRITERION OF THE DISPERSION TERM
 =  20.29    (WHEN MIN. R.F.=1)  AT K=   1, I=   1, J=  31
     1 CALLS TO GCG PACKAGE FOR TRANSPORT TIME STEP   2 IN FLOW TIME STEP  75 STRESS PERIOD   1
     5 TOTAL ITERATIONS
 
 SOLVING FOR HEAD 
 FLOW MODEL IS TRANSIENT
 FLOW MODEL CONTAINS CONSTANT-HEAD CELLS


 MAXIMUM STEPSIZE DURING WHICH ANY PARTICLE CANNOT MOVE MORE THAN ONE CELL
 =  4.138    (WHEN MIN. R.F.=1)  AT K=   6, I=   1, J=  74

 MAXIMUM STEPSIZE WHICH MEETS STABILITY CRITERION OF THE ADVECTION TERM
 (FOR PURE FINITE-DIFFERENCE OPTION, MIXELM=0) 
 =  2.941    (WHEN MIN. R.F.=1)  AT K=   2, I=   1, J=  79


 TOTAL NUMBER OF POINT SOURCES/SINKS PRESENT IN THE FLOW MODEL =    62

 MAXIMUM STEPSIZE WHICH MEETS STABILITY CRITERION OF THE SINK & SOURCE TERM
 =  82.86    (WHEN MIN. R.F.=1)  AT K=   2, I=   1, J= 120

 MAXIMUM STEPSIZE WHICH MEETS STABILITY CRITERION OF THE DISPERSION TERM
 =  20.29    (WHEN MIN. R.F.=1)  AT K=   1, I=   1, J=  31
     1 CALLS TO GCG PACKAGE FOR TRANSPORT TIME STEP   3 IN FLOW TIME STEP  75 STRESS PERIOD   1
     6 TOTAL ITERATIONS
 
 SOLVING FOR HEAD 
 FLOW MODEL IS TRANSIENT
 FLOW MODEL CONTAINS CONSTANT-HEAD CELLS


 MAXIMUM STEPSIZE DURING WHICH ANY PARTICLE CANNOT MOVE MORE THAN ONE CELL
 =  4.130    (WHEN MIN. R.F.=1)  AT K=   4, I=   1, J=  60

 MAXIMUM STEPSIZE WHICH MEETS STABILITY CRITERION OF THE ADVECTION TERM
 (FOR PURE FINITE-DIFFERENCE OPTION, MIXELM=0) 
 =  2.835    (WHEN MIN. R.F.=1)  AT K=   2, I=   1, J=  42


 TOTAL NUMBER OF POINT SOURCES/SINKS PRESENT IN THE FLOW MODEL =    62

 MAXIMUM STEPSIZE WHICH MEETS STABILITY CRITERION OF THE SINK & SOURCE TERM
 =  82.91    (WHEN MIN. R.F.=1)  AT K=   2, I=   1, J= 120

 MAXIMUM STEPSIZE WHICH MEETS STABILITY CRITERION OF THE DISPERSION TERM
 =  20.29    (WHEN MIN. R.F.=1)  AT K=   1, I=   1, J=  31
     1 CALLS TO GCG PACKAGE FOR TRANSPORT TIME STEP   4 IN FLOW TIME STEP  75 STRESS PERIOD   1
     6 TOTAL ITERATIONS
 
 SOLVING FOR HEAD 
 FLOW MODEL IS TRANSIENT
 FLOW MODEL CONTAINS CONSTANT-HEAD CELLS


 MAXIMUM STEPSIZE DURING WHICH ANY PARTICLE CANNOT MOVE MORE THAN ONE CELL
 =  4.116    (WHEN MIN. R.F.=1)  AT K=   4, I=   1, J=  60

 MAXIMUM STEPSIZE WHICH MEETS STABILITY CRITERION OF THE ADVECTION TERM
 (FOR PURE FINITE-DIFFERENCE OPTION, MIXELM=0) 
 =  2.805    (WHEN MIN. R.F.=1)  AT K=   2, I=   1, J=  42


 TOTAL NUMBER OF POINT SOURCES/SINKS PRESENT IN THE FLOW MODEL =    62

 MAXIMUM STEPSIZE WHICH MEETS STABILITY CRITERION OF THE SINK & SOURCE TERM
 =  83.06    (WHEN MIN. R.F.=1)  AT K=   2, I=   1, J= 120

 MAXIMUM STEPSIZE WHICH MEETS STABILITY CRITERION OF THE DISPERSION TERM
 =  20.29    (WHEN MIN. R.F.=1)  AT K=   1, I=   1, J=  31
     1 CALLS TO GCG PACKAGE FOR TRANSPORT TIME STEP   5 IN FLOW TIME STEP  75 STRESS PERIOD   1
     5 TOTAL ITERATIONS
  MAXIMUM CONCENTRATION CHANGES FOR EACH ITERATION:
  MAX. CHANGE LAYER,ROW,COL MAX. CHANGE LAYER,ROW,COL MAX. CHANGE LAYER,ROW,COL MAX. CHANGE LAYER,ROW,COL MAX. CHANGE LAYER,ROW,COL
 ------------------------------------------------------------------------------------------------------------------------------------
   0.2649E-01 (  2,  1, 46)  0.9165E-03 (  2,  1, 78)  0.2699E-04 (  3,  1, 78)  0.1362E-05 (  3,  1, 45)  0.4275E-07 (  4,  1, 79)


                                          ================================================
                                                         FROM TIME =   750.00     TO    760.00    

 
 SOLVING FOR HEAD 
 FLOW MODEL IS TRANSIENT
 FLOW MODEL CONTAINS CONSTANT-HEAD CELLS


 MAXIMUM STEPSIZE DURING WHICH ANY PARTICLE CANNOT MOVE MORE THAN ONE CELL
 =  4.107    (WHEN MIN. R.F.=1)  AT K=   4, I=   1, J=  60

 MAXIMUM STEPSIZE WHICH MEETS STABILITY CRITERION OF THE ADVECTION TERM
 (FOR PURE FINITE-DIFFERENCE OPTION, MIXELM=0) 
 =  2.741    (WHEN MIN. R.F.=1)  AT K=   2, I=   1, J=  78


 TOTAL NUMBER OF POINT SOURCES/SINKS PRESENT IN THE FLOW MODEL =    62

 MAXIMUM STEPSIZE WHICH MEETS STABILITY CRITERION OF THE SINK & SOURCE TERM
 =  85.54    (WHEN MIN. R.F.=1)  AT K=   2, I=   1, J= 120

 MAXIMUM STEPSIZE WHICH MEETS STABILITY CRITERION OF THE DISPERSION TERM
 =  20.29    (WHEN MIN. R.F.=1)  AT K=   1, I=   1, J=  31


     1 CALLS TO GCG PACKAGE FOR TRANSPORT TIME STEP   1 IN FLOW TIME STEP  76 STRESS PERIOD   1
     6 TOTAL ITERATIONS

 NO OUTPUT CONTROL FOR STRESS PERIOD    1   TIME STEP  76
 
 SOLVING FOR HEAD 
 FLOW MODEL IS TRANSIENT
 FLOW MODEL CONTAINS CONSTANT-HEAD CELLS


 MAXIMUM STEPSIZE DURING WHICH ANY PARTICLE CANNOT MOVE MORE THAN ONE CELL
 =  4.096    (WHEN MIN. R.F.=1)  AT K=   4, I=   1, J=  60

 MAXIMUM STEPSIZE WHICH MEETS STABILITY CRITERION OF THE ADVECTION TERM
 (FOR PURE FINITE-DIFFERENCE OPTION, MIXELM=0) 
 =  2.737    (WHEN MIN. R.F.=1)  AT K=   2, I=   1, J=  78


 TOTAL NUMBER OF POINT SOURCES/SINKS PRESENT IN THE FLOW MODEL =    62

 MAXIMUM STEPSIZE WHICH MEETS STABILITY CRITERION OF THE SINK & SOURCE TERM
 =  86.22    (WHEN MIN. R.F.=1)  AT K=   2, I=   1, J= 120

 MAXIMUM STEPSIZE WHICH MEETS STABILITY CRITERION OF THE DISPERSION TERM
 =  20.29    (WHEN MIN. R.F.=1)  AT K=   1, I=   1, J=  31
     1 CALLS TO GCG PACKAGE FOR TRANSPORT TIME STEP   2 IN FLOW TIME STEP  76 STRESS PERIOD   1
     6 TOTAL ITERATIONS
 
 SOLVING FOR HEAD 
 FLOW MODEL IS TRANSIENT
 FLOW MODEL CONTAINS CONSTANT-HEAD CELLS


 MAXIMUM STEPSIZE DURING WHICH ANY PARTICLE CANNOT MOVE MORE THAN ONE CELL
 =  4.084    (WHEN MIN. R.F.=1)  AT K=   4, I=   1, J=  60

 MAXIMUM STEPSIZE WHICH MEETS STABILITY CRITERION OF THE ADVECTION TERM
 (FOR PURE FINITE-DIFFERENCE OPTION, MIXELM=0) 
 =  2.820    (WHEN MIN. R.F.=1)  AT K=   2, I=   1, J=  78


 TOTAL NUMBER OF POINT SOURCES/SINKS PRESENT IN THE FLOW MODEL =    62

 MAXIMUM STEPSIZE WHICH MEETS STABILITY CRITERION OF THE SINK & SOURCE TERM
 =  88.56    (WHEN MIN. R.F.=1)  AT K=   2, I=   1, J= 120

 MAXIMUM STEPSIZE WHICH MEETS STABILITY CRITERION OF THE DISPERSION TERM
 =  20.29    (WHEN MIN. R.F.=1)  AT K=   1, I=   1, J=  31
     1 CALLS TO GCG PACKAGE FOR TRANSPORT TIME STEP   3 IN FLOW TIME STEP  76 STRESS PERIOD   1
     6 TOTAL ITERATIONS
 
 SOLVING FOR HEAD 
 FLOW MODEL IS TRANSIENT
 FLOW MODEL CONTAINS CONSTANT-HEAD CELLS


 MAXIMUM STEPSIZE DURING WHICH ANY PARTICLE CANNOT MOVE MORE THAN ONE CELL
 =  4.073    (WHEN MIN. R.F.=1)  AT K=   4, I=   1, J=  60

 MAXIMUM STEPSIZE WHICH MEETS STABILITY CRITERION OF THE ADVECTION TERM
 (FOR PURE FINITE-DIFFERENCE OPTION, MIXELM=0) 
 =  2.879    (WHEN MIN. R.F.=1)  AT K=   2, I=   1, J=  43


 TOTAL NUMBER OF POINT SOURCES/SINKS PRESENT IN THE FLOW MODEL =    62

 MAXIMUM STEPSIZE WHICH MEETS STABILITY CRITERION OF THE SINK & SOURCE TERM
 =  89.27    (WHEN MIN. R.F.=1)  AT K=   2, I=   1, J= 120

 MAXIMUM STEPSIZE WHICH MEETS STABILITY CRITERION OF THE DISPERSION TERM
 =  20.29    (WHEN MIN. R.F.=1)  AT K=   1, I=   1, J=  31
     1 CALLS TO GCG PACKAGE FOR TRANSPORT TIME STEP   4 IN FLOW TIME STEP  76 STRESS PERIOD   1
     5 TOTAL ITERATIONS
 
 SOLVING FOR HEAD 
 FLOW MODEL IS TRANSIENT
 FLOW MODEL CONTAINS CONSTANT-HEAD CELLS


 MAXIMUM STEPSIZE DURING WHICH ANY PARTICLE CANNOT MOVE MORE THAN ONE CELL
 =  4.061    (WHEN MIN. R.F.=1)  AT K=   4, I=   1, J=  60

 MAXIMUM STEPSIZE WHICH MEETS STABILITY CRITERION OF THE ADVECTION TERM
 (FOR PURE FINITE-DIFFERENCE OPTION, MIXELM=0) 
 =  2.802    (WHEN MIN. R.F.=1)  AT K=   2, I=   1, J=  43


 TOTAL NUMBER OF POINT SOURCES/SINKS PRESENT IN THE FLOW MODEL =    62

 MAXIMUM STEPSIZE WHICH MEETS STABILITY CRITERION OF THE SINK & SOURCE TERM
 =  89.40    (WHEN MIN. R.F.=1)  AT K=   2, I=   1, J= 120

 MAXIMUM STEPSIZE WHICH MEETS STABILITY CRITERION OF THE DISPERSION TERM
 =  20.29    (WHEN MIN. R.F.=1)  AT K=   1, I=   1, J=  31
     1 CALLS TO GCG PACKAGE FOR TRANSPORT TIME STEP   5 IN FLOW TIME STEP  76 STRESS PERIOD   1
     5 TOTAL ITERATIONS
  MAXIMUM CONCENTRATION CHANGES FOR EACH ITERATION:
  MAX. CHANGE LAYER,ROW,COL MAX. CHANGE LAYER,ROW,COL MAX. CHANGE LAYER,ROW,COL MAX. CHANGE LAYER,ROW,COL MAX. CHANGE LAYER,ROW,COL
 ------------------------------------------------------------------------------------------------------------------------------------
   0.2605E-01 (  2,  1, 79)  0.9692E-03 (  2,  1, 77)  0.3122E-04 (  3,  1, 77)  0.8371E-06 (  4,  1, 77)  0.3290E-07 (  4,  1, 78)


                                          ================================================
                                                         FROM TIME =   760.00     TO    770.00    

 
 SOLVING FOR HEAD 
 FLOW MODEL IS TRANSIENT
 FLOW MODEL CONTAINS CONSTANT-HEAD CELLS


 MAXIMUM STEPSIZE DURING WHICH ANY PARTICLE CANNOT MOVE MORE THAN ONE CELL
 =  4.055    (WHEN MIN. R.F.=1)  AT K=   4, I=   1, J=  60

 MAXIMUM STEPSIZE WHICH MEETS STABILITY CRITERION OF THE ADVECTION TERM
 (FOR PURE FINITE-DIFFERENCE OPTION, MIXELM=0) 
 =  2.811    (WHEN MIN. R.F.=1)  AT K=   2, I=   1, J=  43


 TOTAL NUMBER OF POINT SOURCES/SINKS PRESENT IN THE FLOW MODEL =    62

 MAXIMUM STEPSIZE WHICH MEETS STABILITY CRITERION OF THE SINK & SOURCE TERM
 =  91.59    (WHEN MIN. R.F.=1)  AT K=   2, I=   1, J= 120

 MAXIMUM STEPSIZE WHICH MEETS STABILITY CRITERION OF THE DISPERSION TERM
 =  20.29    (WHEN MIN. R.F.=1)  AT K=   1, I=   1, J=  31


     1 CALLS TO GCG PACKAGE FOR TRANSPORT TIME STEP   1 IN FLOW TIME STEP  77 STRESS PERIOD   1
     6 TOTAL ITERATIONS

 NO OUTPUT CONTROL FOR STRESS PERIOD    1   TIME STEP  77
 
 SOLVING FOR HEAD 
 FLOW MODEL IS TRANSIENT
 FLOW MODEL CONTAINS CONSTANT-HEAD CELLS


 MAXIMUM STEPSIZE DURING WHICH ANY PARTICLE CANNOT MOVE MORE THAN ONE CELL
 =  4.047    (WHEN MIN. R.F.=1)  AT K=   4, I=   1, J=  60

 MAXIMUM STEPSIZE WHICH MEETS STABILITY CRITERION OF THE ADVECTION TERM
 (FOR PURE FINITE-DIFFERENCE OPTION, MIXELM=0) 
 =  2.886    (WHEN MIN. R.F.=1)  AT K=   2, I=   1, J=  77


 TOTAL NUMBER OF POINT SOURCES/SINKS PRESENT IN THE FLOW MODEL =    62

 MAXIMUM STEPSIZE WHICH MEETS STABILITY CRITERION OF THE SINK & SOURCE TERM
 =  91.83    (WHEN MIN. R.F.=1)  AT K=   2, I=   1, J= 120

 MAXIMUM STEPSIZE WHICH MEETS STABILITY CRITERION OF THE DISPERSION TERM
 =  20.29    (WHEN MIN. R.F.=1)  AT K=   1, I=   1, J=  31
     1 CALLS TO GCG PACKAGE FOR TRANSPORT TIME STEP   2 IN FLOW TIME STEP  77 STRESS PERIOD   1
     6 TOTAL ITERATIONS
 
 SOLVING FOR HEAD 
 FLOW MODEL IS TRANSIENT
 FLOW MODEL CONTAINS CONSTANT-HEAD CELLS


 MAXIMUM STEPSIZE DURING WHICH ANY PARTICLE CANNOT MOVE MORE THAN ONE CELL
 =  4.037    (WHEN MIN. R.F.=1)  AT K=   4, I=   1, J=  60

 MAXIMUM STEPSIZE WHICH MEETS STABILITY CRITERION OF THE ADVECTION TERM
 (FOR PURE FINITE-DIFFERENCE OPTION, MIXELM=0) 
 =  2.822    (WHEN MIN. R.F.=1)  AT K=   2, I=   1, J=  77


 TOTAL NUMBER OF POINT SOURCES/SINKS PRESENT IN THE FLOW MODEL =    62

 MAXIMUM STEPSIZE WHICH MEETS STABILITY CRITERION OF THE SINK & SOURCE TERM
 =  93.67    (WHEN MIN. R.F.=1)  AT K=   2, I=   1, J= 120

 MAXIMUM STEPSIZE WHICH MEETS STABILITY CRITERION OF THE DISPERSION TERM
 =  20.29    (WHEN MIN. R.F.=1)  AT K=   1, I=   1, J=  31
     1 CALLS TO GCG PACKAGE FOR TRANSPORT TIME STEP   3 IN FLOW TIME STEP  77 STRESS PERIOD   1
     6 TOTAL ITERATIONS
 
 SOLVING FOR HEAD 
 FLOW MODEL IS TRANSIENT
 FLOW MODEL CONTAINS CONSTANT-HEAD CELLS


 MAXIMUM STEPSIZE DURING WHICH ANY PARTICLE CANNOT MOVE MORE THAN ONE CELL
 =  4.028    (WHEN MIN. R.F.=1)  AT K=   4, I=   1, J=  60

 MAXIMUM STEPSIZE WHICH MEETS STABILITY CRITERION OF THE ADVECTION TERM
 (FOR PURE FINITE-DIFFERENCE OPTION, MIXELM=0) 
 =  2.837    (WHEN MIN. R.F.=1)  AT K=   2, I=   1, J=  77


 TOTAL NUMBER OF POINT SOURCES/SINKS PRESENT IN THE FLOW MODEL =    62

 MAXIMUM STEPSIZE WHICH MEETS STABILITY CRITERION OF THE SINK & SOURCE TERM
 =  95.07    (WHEN MIN. R.F.=1)  AT K=   2, I=   1, J= 120

 MAXIMUM STEPSIZE WHICH MEETS STABILITY CRITERION OF THE DISPERSION TERM
 =  20.29    (WHEN MIN. R.F.=1)  AT K=   1, I=   1, J=  31
     1 CALLS TO GCG PACKAGE FOR TRANSPORT TIME STEP   4 IN FLOW TIME STEP  77 STRESS PERIOD   1
     5 TOTAL ITERATIONS
 
 SOLVING FOR HEAD 
 FLOW MODEL IS TRANSIENT
 FLOW MODEL CONTAINS CONSTANT-HEAD CELLS


 MAXIMUM STEPSIZE DURING WHICH ANY PARTICLE CANNOT MOVE MORE THAN ONE CELL
 =  4.019    (WHEN MIN. R.F.=1)  AT K=   4, I=   1, J=  60

 MAXIMUM STEPSIZE WHICH MEETS STABILITY CRITERION OF THE ADVECTION TERM
 (FOR PURE FINITE-DIFFERENCE OPTION, MIXELM=0) 
 =  2.936    (WHEN MIN. R.F.=1)  AT K=   2, I=   1, J=  77


 TOTAL NUMBER OF POINT SOURCES/SINKS PRESENT IN THE FLOW MODEL =    62

 MAXIMUM STEPSIZE WHICH MEETS STABILITY CRITERION OF THE SINK & SOURCE TERM
 =  94.23    (WHEN MIN. R.F.=1)  AT K=   2, I=   1, J= 120

 MAXIMUM STEPSIZE WHICH MEETS STABILITY CRITERION OF THE DISPERSION TERM
 =  20.29    (WHEN MIN. R.F.=1)  AT K=   1, I=   1, J=  31
     1 CALLS TO GCG PACKAGE FOR TRANSPORT TIME STEP   5 IN FLOW TIME STEP  77 STRESS PERIOD   1
     5 TOTAL ITERATIONS
  MAXIMUM CONCENTRATION CHANGES FOR EACH ITERATION:
  MAX. CHANGE LAYER,ROW,COL MAX. CHANGE LAYER,ROW,COL MAX. CHANGE LAYER,ROW,COL MAX. CHANGE LAYER,ROW,COL MAX. CHANGE LAYER,ROW,COL
 ------------------------------------------------------------------------------------------------------------------------------------
   0.2813E-01 (  2,  1, 78)  0.6777E-03 (  2,  1, 75)  0.1787E-04 (  2,  1, 79)  0.6639E-06 (  3,  1, 79)  0.2073E-07 (  4,  1, 75)


                                          ================================================
                                                         FROM TIME =   770.00     TO    780.00    

 
 SOLVING FOR HEAD 
 FLOW MODEL IS TRANSIENT
 FLOW MODEL CONTAINS CONSTANT-HEAD CELLS


 MAXIMUM STEPSIZE DURING WHICH ANY PARTICLE CANNOT MOVE MORE THAN ONE CELL
 =  4.016    (WHEN MIN. R.F.=1)  AT K=   4, I=   1, J=  60

 MAXIMUM STEPSIZE WHICH MEETS STABILITY CRITERION OF THE ADVECTION TERM
 (FOR PURE FINITE-DIFFERENCE OPTION, MIXELM=0) 
 =  2.879    (WHEN MIN. R.F.=1)  AT K=   2, I=   1, J=  44


 TOTAL NUMBER OF POINT SOURCES/SINKS PRESENT IN THE FLOW MODEL =    62

 MAXIMUM STEPSIZE WHICH MEETS STABILITY CRITERION OF THE SINK & SOURCE TERM
 =  94.24    (WHEN MIN. R.F.=1)  AT K=   2, I=   1, J= 120

 MAXIMUM STEPSIZE WHICH MEETS STABILITY CRITERION OF THE DISPERSION TERM
 =  20.29    (WHEN MIN. R.F.=1)  AT K=   1, I=   1, J=  31


     1 CALLS TO GCG PACKAGE FOR TRANSPORT TIME STEP   1 IN FLOW TIME STEP  78 STRESS PERIOD   1
     5 TOTAL ITERATIONS

 NO OUTPUT CONTROL FOR STRESS PERIOD    1   TIME STEP  78



 >>>>>>>>>>>>>>>>>>>>>>>>>>>>>>>>>>>>>>>>>>>>>>>>>>>>>>>FOR COMPONENT NO. 01<<<<<<<<<<<<<<<<<<<<<<<<<<<<<<<<<<<<<<<<<<<<<<<<<<<<<<<


                                            -------------------------------------------
                                                      TRANSPORT STEP NO.    1
                                            -------------------------------------------

 TOTAL ELAPSED TIME SINCE BEGINNING OF SIMULATION =   771.7200    D   
 .....................................................................

                     CUMULATIVE MASS BUDGETS AT END OF TRANSPORT STEP    1, TIME STEP   78, STRESS PERIOD    1
                     ------------------------------------------------------------------------------------------

                                                             IN                           OUT
                                                      ----------------             ----------------
                               CONSTANT CONCENTRATION:    581599.3                   -87947.46    
                                        CONSTANT HEAD:    0.000000                  -0.9287418E-49
                               MASS STOR (FLOW MODEL):    112.2063                   -43.33129    
                                MASS STORAGE (SOLUTE):    714418.6                   -1208139.    
                            ---------------------------------------------------------------------------
                                              [TOTAL]:    1296130.     KG            -1296130.     KG  

                                                          NET (IN - OUT):   0.6980034E-02
                                                   DISCREPANCY (PERCENT):   0.5385288E-06
 
 SOLVING FOR HEAD 
 FLOW MODEL IS TRANSIENT
 FLOW MODEL CONTAINS CONSTANT-HEAD CELLS


 MAXIMUM STEPSIZE DURING WHICH ANY PARTICLE CANNOT MOVE MORE THAN ONE CELL
 =  4.013    (WHEN MIN. R.F.=1)  AT K=   4, I=   1, J=  60

 MAXIMUM STEPSIZE WHICH MEETS STABILITY CRITERION OF THE ADVECTION TERM
 (FOR PURE FINITE-DIFFERENCE OPTION, MIXELM=0) 
 =  2.867    (WHEN MIN. R.F.=1)  AT K=   2, I=   1, J=  44


 TOTAL NUMBER OF POINT SOURCES/SINKS PRESENT IN THE FLOW MODEL =    62

 MAXIMUM STEPSIZE WHICH MEETS STABILITY CRITERION OF THE SINK & SOURCE TERM
 =  92.87    (WHEN MIN. R.F.=1)  AT K=   2, I=   1, J= 120

 MAXIMUM STEPSIZE WHICH MEETS STABILITY CRITERION OF THE DISPERSION TERM
 =  20.29    (WHEN MIN. R.F.=1)  AT K=   1, I=   1, J=  31
     1 CALLS TO GCG PACKAGE FOR TRANSPORT TIME STEP   2 IN FLOW TIME STEP  78 STRESS PERIOD   1
     6 TOTAL ITERATIONS
 
 SOLVING FOR HEAD 
 FLOW MODEL IS TRANSIENT
 FLOW MODEL CONTAINS CONSTANT-HEAD CELLS


 MAXIMUM STEPSIZE DURING WHICH ANY PARTICLE CANNOT MOVE MORE THAN ONE CELL
 =  4.006    (WHEN MIN. R.F.=1)  AT K=   4, I=   1, J=  60

 MAXIMUM STEPSIZE WHICH MEETS STABILITY CRITERION OF THE ADVECTION TERM
 (FOR PURE FINITE-DIFFERENCE OPTION, MIXELM=0) 
 =  2.924    (WHEN MIN. R.F.=1)  AT K=   2, I=   1, J=  44


 TOTAL NUMBER OF POINT SOURCES/SINKS PRESENT IN THE FLOW MODEL =    62

 MAXIMUM STEPSIZE WHICH MEETS STABILITY CRITERION OF THE SINK & SOURCE TERM
 =  92.66    (WHEN MIN. R.F.=1)  AT K=   2, I=   1, J= 120

 MAXIMUM STEPSIZE WHICH MEETS STABILITY CRITERION OF THE DISPERSION TERM
 =  20.29    (WHEN MIN. R.F.=1)  AT K=   1, I=   1, J=  31
     1 CALLS TO GCG PACKAGE FOR TRANSPORT TIME STEP   3 IN FLOW TIME STEP  78 STRESS PERIOD   1
     6 TOTAL ITERATIONS
 
 SOLVING FOR HEAD 
 FLOW MODEL IS TRANSIENT
 FLOW MODEL CONTAINS CONSTANT-HEAD CELLS


 MAXIMUM STEPSIZE DURING WHICH ANY PARTICLE CANNOT MOVE MORE THAN ONE CELL
 =  3.997    (WHEN MIN. R.F.=1)  AT K=   4, I=   1, J=  60

 MAXIMUM STEPSIZE WHICH MEETS STABILITY CRITERION OF THE ADVECTION TERM
 (FOR PURE FINITE-DIFFERENCE OPTION, MIXELM=0) 
 =  3.060    (WHEN MIN. R.F.=1)  AT K=   2, I=   1, J=  44


 TOTAL NUMBER OF POINT SOURCES/SINKS PRESENT IN THE FLOW MODEL =    62

 MAXIMUM STEPSIZE WHICH MEETS STABILITY CRITERION OF THE SINK & SOURCE TERM
 =  92.91    (WHEN MIN. R.F.=1)  AT K=   2, I=   1, J= 120

 MAXIMUM STEPSIZE WHICH MEETS STABILITY CRITERION OF THE DISPERSION TERM
 =  20.29    (WHEN MIN. R.F.=1)  AT K=   1, I=   1, J=  31
     1 CALLS TO GCG PACKAGE FOR TRANSPORT TIME STEP   4 IN FLOW TIME STEP  78 STRESS PERIOD   1
     6 TOTAL ITERATIONS
 
 SOLVING FOR HEAD 
 FLOW MODEL IS TRANSIENT
 FLOW MODEL CONTAINS CONSTANT-HEAD CELLS


 MAXIMUM STEPSIZE DURING WHICH ANY PARTICLE CANNOT MOVE MORE THAN ONE CELL
 =  3.987    (WHEN MIN. R.F.=1)  AT K=   4, I=   1, J=  60

 MAXIMUM STEPSIZE WHICH MEETS STABILITY CRITERION OF THE ADVECTION TERM
 (FOR PURE FINITE-DIFFERENCE OPTION, MIXELM=0) 
 =  3.162    (WHEN MIN. R.F.=1)  AT K=   2, I=   1, J=  76


 TOTAL NUMBER OF POINT SOURCES/SINKS PRESENT IN THE FLOW MODEL =    62

 MAXIMUM STEPSIZE WHICH MEETS STABILITY CRITERION OF THE SINK & SOURCE TERM
 =  92.51    (WHEN MIN. R.F.=1)  AT K=   2, I=   1, J= 120

 MAXIMUM STEPSIZE WHICH MEETS STABILITY CRITERION OF THE DISPERSION TERM
 =  20.29    (WHEN MIN. R.F.=1)  AT K=   1, I=   1, J=  31
     1 CALLS TO GCG PACKAGE FOR TRANSPORT TIME STEP   5 IN FLOW TIME STEP  78 STRESS PERIOD   1
     5 TOTAL ITERATIONS
  MAXIMUM CONCENTRATION CHANGES FOR EACH ITERATION:
  MAX. CHANGE LAYER,ROW,COL MAX. CHANGE LAYER,ROW,COL MAX. CHANGE LAYER,ROW,COL MAX. CHANGE LAYER,ROW,COL MAX. CHANGE LAYER,ROW,COL
 ------------------------------------------------------------------------------------------------------------------------------------
   0.2821E-01 (  2,  1, 43)  0.9746E-03 (  2,  1, 45)  0.3416E-04 (  3,  1, 45)  0.1079E-05 (  3,  1, 75)  0.4996E-07 (  4,  1, 46)


                                          ================================================
                                                         FROM TIME =   780.00     TO    790.00    

 
 SOLVING FOR HEAD 
 FLOW MODEL IS TRANSIENT
 FLOW MODEL CONTAINS CONSTANT-HEAD CELLS


 MAXIMUM STEPSIZE DURING WHICH ANY PARTICLE CANNOT MOVE MORE THAN ONE CELL
 =  3.981    (WHEN MIN. R.F.=1)  AT K=   4, I=   1, J=  60

 MAXIMUM STEPSIZE WHICH MEETS STABILITY CRITERION OF THE ADVECTION TERM
 (FOR PURE FINITE-DIFFERENCE OPTION, MIXELM=0) 
 =  3.136    (WHEN MIN. R.F.=1)  AT K=   2, I=   1, J=  76


 TOTAL NUMBER OF POINT SOURCES/SINKS PRESENT IN THE FLOW MODEL =    62

 MAXIMUM STEPSIZE WHICH MEETS STABILITY CRITERION OF THE SINK & SOURCE TERM
 =  93.54    (WHEN MIN. R.F.=1)  AT K=   2, I=   1, J= 120

 MAXIMUM STEPSIZE WHICH MEETS STABILITY CRITERION OF THE DISPERSION TERM
 =  20.29    (WHEN MIN. R.F.=1)  AT K=   1, I=   1, J=  31


     1 CALLS TO GCG PACKAGE FOR TRANSPORT TIME STEP   1 IN FLOW TIME STEP  79 STRESS PERIOD   1
     6 TOTAL ITERATIONS

 NO OUTPUT CONTROL FOR STRESS PERIOD    1   TIME STEP  79
 
 SOLVING FOR HEAD 
 FLOW MODEL IS TRANSIENT
 FLOW MODEL CONTAINS CONSTANT-HEAD CELLS


 MAXIMUM STEPSIZE DURING WHICH ANY PARTICLE CANNOT MOVE MORE THAN ONE CELL
 =  3.972    (WHEN MIN. R.F.=1)  AT K=   4, I=   1, J=  60

 MAXIMUM STEPSIZE WHICH MEETS STABILITY CRITERION OF THE ADVECTION TERM
 (FOR PURE FINITE-DIFFERENCE OPTION, MIXELM=0) 
 =  3.174    (WHEN MIN. R.F.=1)  AT K=   2, I=   1, J=  45


 TOTAL NUMBER OF POINT SOURCES/SINKS PRESENT IN THE FLOW MODEL =    62

 MAXIMUM STEPSIZE WHICH MEETS STABILITY CRITERION OF THE SINK & SOURCE TERM
 =  90.26    (WHEN MIN. R.F.=1)  AT K=   2, I=   1, J= 120

 MAXIMUM STEPSIZE WHICH MEETS STABILITY CRITERION OF THE DISPERSION TERM
 =  20.29    (WHEN MIN. R.F.=1)  AT K=   1, I=   1, J=  31
     1 CALLS TO GCG PACKAGE FOR TRANSPORT TIME STEP   2 IN FLOW TIME STEP  79 STRESS PERIOD   1
     6 TOTAL ITERATIONS
 
 SOLVING FOR HEAD 
 FLOW MODEL IS TRANSIENT
 FLOW MODEL CONTAINS CONSTANT-HEAD CELLS


 MAXIMUM STEPSIZE DURING WHICH ANY PARTICLE CANNOT MOVE MORE THAN ONE CELL
 =  3.964    (WHEN MIN. R.F.=1)  AT K=   4, I=   1, J=  60

 MAXIMUM STEPSIZE WHICH MEETS STABILITY CRITERION OF THE ADVECTION TERM
 (FOR PURE FINITE-DIFFERENCE OPTION, MIXELM=0) 
 =  3.083    (WHEN MIN. R.F.=1)  AT K=   2, I=   1, J=  45


 TOTAL NUMBER OF POINT SOURCES/SINKS PRESENT IN THE FLOW MODEL =    62

 MAXIMUM STEPSIZE WHICH MEETS STABILITY CRITERION OF THE SINK & SOURCE TERM
 =  88.35    (WHEN MIN. R.F.=1)  AT K=   2, I=   1, J= 120

 MAXIMUM STEPSIZE WHICH MEETS STABILITY CRITERION OF THE DISPERSION TERM
 =  20.29    (WHEN MIN. R.F.=1)  AT K=   1, I=   1, J=  31
     1 CALLS TO GCG PACKAGE FOR TRANSPORT TIME STEP   3 IN FLOW TIME STEP  79 STRESS PERIOD   1
     6 TOTAL ITERATIONS
 
 SOLVING FOR HEAD 
 FLOW MODEL IS TRANSIENT
 FLOW MODEL CONTAINS CONSTANT-HEAD CELLS


 MAXIMUM STEPSIZE DURING WHICH ANY PARTICLE CANNOT MOVE MORE THAN ONE CELL
 =  3.959    (WHEN MIN. R.F.=1)  AT K=   4, I=   1, J=  60

 MAXIMUM STEPSIZE WHICH MEETS STABILITY CRITERION OF THE ADVECTION TERM
 (FOR PURE FINITE-DIFFERENCE OPTION, MIXELM=0) 
 =  3.118    (WHEN MIN. R.F.=1)  AT K=   2, I=   1, J=  45


 TOTAL NUMBER OF POINT SOURCES/SINKS PRESENT IN THE FLOW MODEL =    62

 MAXIMUM STEPSIZE WHICH MEETS STABILITY CRITERION OF THE SINK & SOURCE TERM
 =  86.61    (WHEN MIN. R.F.=1)  AT K=   2, I=   1, J= 120

 MAXIMUM STEPSIZE WHICH MEETS STABILITY CRITERION OF THE DISPERSION TERM
 =  20.29    (WHEN MIN. R.F.=1)  AT K=   1, I=   1, J=  31
     1 CALLS TO GCG PACKAGE FOR TRANSPORT TIME STEP   4 IN FLOW TIME STEP  79 STRESS PERIOD   1
     6 TOTAL ITERATIONS
 
 SOLVING FOR HEAD 
 FLOW MODEL IS TRANSIENT
 FLOW MODEL CONTAINS CONSTANT-HEAD CELLS


 MAXIMUM STEPSIZE DURING WHICH ANY PARTICLE CANNOT MOVE MORE THAN ONE CELL
 =  3.960    (WHEN MIN. R.F.=1)  AT K=   4, I=   1, J=  60

 MAXIMUM STEPSIZE WHICH MEETS STABILITY CRITERION OF THE ADVECTION TERM
 (FOR PURE FINITE-DIFFERENCE OPTION, MIXELM=0) 
 =  3.254    (WHEN MIN. R.F.=1)  AT K=   2, I=   1, J=  45


 TOTAL NUMBER OF POINT SOURCES/SINKS PRESENT IN THE FLOW MODEL =    62

 MAXIMUM STEPSIZE WHICH MEETS STABILITY CRITERION OF THE SINK & SOURCE TERM
 =  84.27    (WHEN MIN. R.F.=1)  AT K=   2, I=   1, J= 120

 MAXIMUM STEPSIZE WHICH MEETS STABILITY CRITERION OF THE DISPERSION TERM
 =  20.29    (WHEN MIN. R.F.=1)  AT K=   1, I=   1, J=  31
     1 CALLS TO GCG PACKAGE FOR TRANSPORT TIME STEP   5 IN FLOW TIME STEP  79 STRESS PERIOD   1
     4 TOTAL ITERATIONS
  MAXIMUM CONCENTRATION CHANGES FOR EACH ITERATION:
  MAX. CHANGE LAYER,ROW,COL MAX. CHANGE LAYER,ROW,COL MAX. CHANGE LAYER,ROW,COL MAX. CHANGE LAYER,ROW,COL MAX. CHANGE LAYER,ROW,COL
 ------------------------------------------------------------------------------------------------------------------------------------
   0.9190E-02 (  2,  1, 44)  0.8412E-04 (  2,  1, 83)  0.1018E-05 (  2,  1, 84)  0.1347E-07 (  3,  1, 84)


                                          ================================================
                                                         FROM TIME =   790.00     TO    800.00    

 
 SOLVING FOR HEAD 
 FLOW MODEL IS TRANSIENT
 FLOW MODEL CONTAINS CONSTANT-HEAD CELLS


 MAXIMUM STEPSIZE DURING WHICH ANY PARTICLE CANNOT MOVE MORE THAN ONE CELL
 =  3.963    (WHEN MIN. R.F.=1)  AT K=   4, I=   1, J=  60

 MAXIMUM STEPSIZE WHICH MEETS STABILITY CRITERION OF THE ADVECTION TERM
 (FOR PURE FINITE-DIFFERENCE OPTION, MIXELM=0) 
 =  3.298    (WHEN MIN. R.F.=1)  AT K=   2, I=   1, J=  75


 TOTAL NUMBER OF POINT SOURCES/SINKS PRESENT IN THE FLOW MODEL =    62

 MAXIMUM STEPSIZE WHICH MEETS STABILITY CRITERION OF THE SINK & SOURCE TERM
 =  87.54    (WHEN MIN. R.F.=1)  AT K=   2, I=   1, J= 120

 MAXIMUM STEPSIZE WHICH MEETS STABILITY CRITERION OF THE DISPERSION TERM
 =  20.29    (WHEN MIN. R.F.=1)  AT K=   1, I=   1, J=  31


     1 CALLS TO GCG PACKAGE FOR TRANSPORT TIME STEP   1 IN FLOW TIME STEP  80 STRESS PERIOD   1
     6 TOTAL ITERATIONS

 NO OUTPUT CONTROL FOR STRESS PERIOD    1   TIME STEP  80
 
 SOLVING FOR HEAD 
 FLOW MODEL IS TRANSIENT
 FLOW MODEL CONTAINS CONSTANT-HEAD CELLS


 MAXIMUM STEPSIZE DURING WHICH ANY PARTICLE CANNOT MOVE MORE THAN ONE CELL
 =  3.970    (WHEN MIN. R.F.=1)  AT K=   4, I=   1, J=  60

 MAXIMUM STEPSIZE WHICH MEETS STABILITY CRITERION OF THE ADVECTION TERM
 (FOR PURE FINITE-DIFFERENCE OPTION, MIXELM=0) 
 =  3.130    (WHEN MIN. R.F.=1)  AT K=   2, I=   1, J=  75


 TOTAL NUMBER OF POINT SOURCES/SINKS PRESENT IN THE FLOW MODEL =    62

 MAXIMUM STEPSIZE WHICH MEETS STABILITY CRITERION OF THE SINK & SOURCE TERM
 =  83.52    (WHEN MIN. R.F.=1)  AT K=   2, I=   1, J= 120

 MAXIMUM STEPSIZE WHICH MEETS STABILITY CRITERION OF THE DISPERSION TERM
 =  20.29    (WHEN MIN. R.F.=1)  AT K=   1, I=   1, J=  31
     1 CALLS TO GCG PACKAGE FOR TRANSPORT TIME STEP   2 IN FLOW TIME STEP  80 STRESS PERIOD   1
     6 TOTAL ITERATIONS
 
 SOLVING FOR HEAD 
 FLOW MODEL IS TRANSIENT
 FLOW MODEL CONTAINS CONSTANT-HEAD CELLS


 MAXIMUM STEPSIZE DURING WHICH ANY PARTICLE CANNOT MOVE MORE THAN ONE CELL
 =  3.950    (WHEN MIN. R.F.=1)  AT K=   4, I=   1, J=  74

 MAXIMUM STEPSIZE WHICH MEETS STABILITY CRITERION OF THE ADVECTION TERM
 (FOR PURE FINITE-DIFFERENCE OPTION, MIXELM=0) 
 =  3.086    (WHEN MIN. R.F.=1)  AT K=   2, I=   1, J=  75


 TOTAL NUMBER OF POINT SOURCES/SINKS PRESENT IN THE FLOW MODEL =    62

 MAXIMUM STEPSIZE WHICH MEETS STABILITY CRITERION OF THE SINK & SOURCE TERM
 =  81.11    (WHEN MIN. R.F.=1)  AT K=   2, I=   1, J= 120

 MAXIMUM STEPSIZE WHICH MEETS STABILITY CRITERION OF THE DISPERSION TERM
 =  20.29    (WHEN MIN. R.F.=1)  AT K=   1, I=   1, J=  31
     1 CALLS TO GCG PACKAGE FOR TRANSPORT TIME STEP   3 IN FLOW TIME STEP  80 STRESS PERIOD   1
     6 TOTAL ITERATIONS
 
 SOLVING FOR HEAD 
 FLOW MODEL IS TRANSIENT
 FLOW MODEL CONTAINS CONSTANT-HEAD CELLS


 MAXIMUM STEPSIZE DURING WHICH ANY PARTICLE CANNOT MOVE MORE THAN ONE CELL
 =  3.821    (WHEN MIN. R.F.=1)  AT K=   4, I=   1, J=  74

 MAXIMUM STEPSIZE WHICH MEETS STABILITY CRITERION OF THE ADVECTION TERM
 (FOR PURE FINITE-DIFFERENCE OPTION, MIXELM=0) 
 =  2.997    (WHEN MIN. R.F.=1)  AT K=   2, I=   1, J=  81


 TOTAL NUMBER OF POINT SOURCES/SINKS PRESENT IN THE FLOW MODEL =    62

 MAXIMUM STEPSIZE WHICH MEETS STABILITY CRITERION OF THE SINK & SOURCE TERM
 =  79.12    (WHEN MIN. R.F.=1)  AT K=   2, I=   1, J= 120

 MAXIMUM STEPSIZE WHICH MEETS STABILITY CRITERION OF THE DISPERSION TERM
 =  20.29    (WHEN MIN. R.F.=1)  AT K=   1, I=   1, J=  31
     1 CALLS TO GCG PACKAGE FOR TRANSPORT TIME STEP   4 IN FLOW TIME STEP  80 STRESS PERIOD   1
     6 TOTAL ITERATIONS
 
 SOLVING FOR HEAD 
 FLOW MODEL IS TRANSIENT
 FLOW MODEL CONTAINS CONSTANT-HEAD CELLS


 MAXIMUM STEPSIZE DURING WHICH ANY PARTICLE CANNOT MOVE MORE THAN ONE CELL
 =  3.733    (WHEN MIN. R.F.=1)  AT K=   4, I=   1, J=  74

 MAXIMUM STEPSIZE WHICH MEETS STABILITY CRITERION OF THE ADVECTION TERM
 (FOR PURE FINITE-DIFFERENCE OPTION, MIXELM=0) 
 =  2.832    (WHEN MIN. R.F.=1)  AT K=   2, I=   1, J=  81


 TOTAL NUMBER OF POINT SOURCES/SINKS PRESENT IN THE FLOW MODEL =    62

 MAXIMUM STEPSIZE WHICH MEETS STABILITY CRITERION OF THE SINK & SOURCE TERM
 =  76.43    (WHEN MIN. R.F.=1)  AT K=   2, I=   1, J= 120

 MAXIMUM STEPSIZE WHICH MEETS STABILITY CRITERION OF THE DISPERSION TERM
 =  20.29    (WHEN MIN. R.F.=1)  AT K=   1, I=   1, J=  31
     1 CALLS TO GCG PACKAGE FOR TRANSPORT TIME STEP   5 IN FLOW TIME STEP  80 STRESS PERIOD   1
     4 TOTAL ITERATIONS
  MAXIMUM CONCENTRATION CHANGES FOR EACH ITERATION:
  MAX. CHANGE LAYER,ROW,COL MAX. CHANGE LAYER,ROW,COL MAX. CHANGE LAYER,ROW,COL MAX. CHANGE LAYER,ROW,COL MAX. CHANGE LAYER,ROW,COL
 ------------------------------------------------------------------------------------------------------------------------------------
   0.7328E-02 (  2,  1, 76)  0.4410E-04 (  2,  1, 82)  0.4506E-06 (  3,  1, 80)  0.4829E-08 (  4,  1, 80)


                                          ================================================
                                                         FROM TIME =   800.00     TO    810.00    

 
 SOLVING FOR HEAD 
 FLOW MODEL IS TRANSIENT
 FLOW MODEL CONTAINS CONSTANT-HEAD CELLS


 MAXIMUM STEPSIZE DURING WHICH ANY PARTICLE CANNOT MOVE MORE THAN ONE CELL
 =  3.720    (WHEN MIN. R.F.=1)  AT K=   4, I=   1, J=  74

 MAXIMUM STEPSIZE WHICH MEETS STABILITY CRITERION OF THE ADVECTION TERM
 (FOR PURE FINITE-DIFFERENCE OPTION, MIXELM=0) 
 =  2.824    (WHEN MIN. R.F.=1)  AT K=   2, I=   1, J=  81


 TOTAL NUMBER OF POINT SOURCES/SINKS PRESENT IN THE FLOW MODEL =    62

 MAXIMUM STEPSIZE WHICH MEETS STABILITY CRITERION OF THE SINK & SOURCE TERM
 =  82.15    (WHEN MIN. R.F.=1)  AT K=   2, I=   1, J= 120

 MAXIMUM STEPSIZE WHICH MEETS STABILITY CRITERION OF THE DISPERSION TERM
 =  20.29    (WHEN MIN. R.F.=1)  AT K=   1, I=   1, J=  31


     1 CALLS TO GCG PACKAGE FOR TRANSPORT TIME STEP   1 IN FLOW TIME STEP  81 STRESS PERIOD   1
     6 TOTAL ITERATIONS

 NO OUTPUT CONTROL FOR STRESS PERIOD    1   TIME STEP  81
 
 SOLVING FOR HEAD 
 FLOW MODEL IS TRANSIENT
 FLOW MODEL CONTAINS CONSTANT-HEAD CELLS


 MAXIMUM STEPSIZE DURING WHICH ANY PARTICLE CANNOT MOVE MORE THAN ONE CELL
 =  3.666    (WHEN MIN. R.F.=1)  AT K=   4, I=   1, J=  74

 MAXIMUM STEPSIZE WHICH MEETS STABILITY CRITERION OF THE ADVECTION TERM
 (FOR PURE FINITE-DIFFERENCE OPTION, MIXELM=0) 
 =  2.842    (WHEN MIN. R.F.=1)  AT K=   2, I=   1, J=  81


 TOTAL NUMBER OF POINT SOURCES/SINKS PRESENT IN THE FLOW MODEL =    62

 MAXIMUM STEPSIZE WHICH MEETS STABILITY CRITERION OF THE SINK & SOURCE TERM
 =  79.12    (WHEN MIN. R.F.=1)  AT K=   2, I=   1, J= 120

 MAXIMUM STEPSIZE WHICH MEETS STABILITY CRITERION OF THE DISPERSION TERM
 =  20.29    (WHEN MIN. R.F.=1)  AT K=   1, I=   1, J=  31
     1 CALLS TO GCG PACKAGE FOR TRANSPORT TIME STEP   2 IN FLOW TIME STEP  81 STRESS PERIOD   1
     6 TOTAL ITERATIONS
 
 SOLVING FOR HEAD 
 FLOW MODEL IS TRANSIENT
 FLOW MODEL CONTAINS CONSTANT-HEAD CELLS


 MAXIMUM STEPSIZE DURING WHICH ANY PARTICLE CANNOT MOVE MORE THAN ONE CELL
 =  3.633    (WHEN MIN. R.F.=1)  AT K=   4, I=   1, J=  74

 MAXIMUM STEPSIZE WHICH MEETS STABILITY CRITERION OF THE ADVECTION TERM
 (FOR PURE FINITE-DIFFERENCE OPTION, MIXELM=0) 
 =  3.044    (WHEN MIN. R.F.=1)  AT K=   2, I=   1, J=  81


 TOTAL NUMBER OF POINT SOURCES/SINKS PRESENT IN THE FLOW MODEL =    62

 MAXIMUM STEPSIZE WHICH MEETS STABILITY CRITERION OF THE SINK & SOURCE TERM
 =  77.24    (WHEN MIN. R.F.=1)  AT K=   2, I=   1, J= 120

 MAXIMUM STEPSIZE WHICH MEETS STABILITY CRITERION OF THE DISPERSION TERM
 =  20.29    (WHEN MIN. R.F.=1)  AT K=   1, I=   1, J=  31
     1 CALLS TO GCG PACKAGE FOR TRANSPORT TIME STEP   3 IN FLOW TIME STEP  81 STRESS PERIOD   1
     6 TOTAL ITERATIONS
 
 SOLVING FOR HEAD 
 FLOW MODEL IS TRANSIENT
 FLOW MODEL CONTAINS CONSTANT-HEAD CELLS


 MAXIMUM STEPSIZE DURING WHICH ANY PARTICLE CANNOT MOVE MORE THAN ONE CELL
 =  3.620    (WHEN MIN. R.F.=1)  AT K=   4, I=   1, J=  74

 MAXIMUM STEPSIZE WHICH MEETS STABILITY CRITERION OF THE ADVECTION TERM
 (FOR PURE FINITE-DIFFERENCE OPTION, MIXELM=0) 
 =  2.843    (WHEN MIN. R.F.=1)  AT K=   2, I=   1, J=  80


 TOTAL NUMBER OF POINT SOURCES/SINKS PRESENT IN THE FLOW MODEL =    62

 MAXIMUM STEPSIZE WHICH MEETS STABILITY CRITERION OF THE SINK & SOURCE TERM
 =  75.69    (WHEN MIN. R.F.=1)  AT K=   2, I=   1, J= 120

 MAXIMUM STEPSIZE WHICH MEETS STABILITY CRITERION OF THE DISPERSION TERM
 =  20.29    (WHEN MIN. R.F.=1)  AT K=   1, I=   1, J=  31
     1 CALLS TO GCG PACKAGE FOR TRANSPORT TIME STEP   4 IN FLOW TIME STEP  81 STRESS PERIOD   1
     6 TOTAL ITERATIONS
 
 SOLVING FOR HEAD 
 FLOW MODEL IS TRANSIENT
 FLOW MODEL CONTAINS CONSTANT-HEAD CELLS


 MAXIMUM STEPSIZE DURING WHICH ANY PARTICLE CANNOT MOVE MORE THAN ONE CELL
 =  3.629    (WHEN MIN. R.F.=1)  AT K=   4, I=   1, J=  74

 MAXIMUM STEPSIZE WHICH MEETS STABILITY CRITERION OF THE ADVECTION TERM
 (FOR PURE FINITE-DIFFERENCE OPTION, MIXELM=0) 
 =  2.681    (WHEN MIN. R.F.=1)  AT K=   2, I=   1, J=  80


 TOTAL NUMBER OF POINT SOURCES/SINKS PRESENT IN THE FLOW MODEL =    62

 MAXIMUM STEPSIZE WHICH MEETS STABILITY CRITERION OF THE SINK & SOURCE TERM
 =  74.33    (WHEN MIN. R.F.=1)  AT K=   2, I=   1, J= 120

 MAXIMUM STEPSIZE WHICH MEETS STABILITY CRITERION OF THE DISPERSION TERM
 =  20.29    (WHEN MIN. R.F.=1)  AT K=   1, I=   1, J=  31
     1 CALLS TO GCG PACKAGE FOR TRANSPORT TIME STEP   5 IN FLOW TIME STEP  81 STRESS PERIOD   1
     5 TOTAL ITERATIONS
  MAXIMUM CONCENTRATION CHANGES FOR EACH ITERATION:
  MAX. CHANGE LAYER,ROW,COL MAX. CHANGE LAYER,ROW,COL MAX. CHANGE LAYER,ROW,COL MAX. CHANGE LAYER,ROW,COL MAX. CHANGE LAYER,ROW,COL
 ------------------------------------------------------------------------------------------------------------------------------------
   0.2067E-01 (  2,  1, 61)  0.4443E-03 (  2,  1, 61)  0.1171E-04 (  3,  1, 79)  0.4575E-06 (  3,  1, 82)  0.1355E-07 (  3,  1, 44)


                                          ================================================
                                                         FROM TIME =   810.00     TO    820.00    

 
 SOLVING FOR HEAD 
 FLOW MODEL IS TRANSIENT
 FLOW MODEL CONTAINS CONSTANT-HEAD CELLS


 MAXIMUM STEPSIZE DURING WHICH ANY PARTICLE CANNOT MOVE MORE THAN ONE CELL
 =  3.646    (WHEN MIN. R.F.=1)  AT K=   4, I=   1, J=  74

 MAXIMUM STEPSIZE WHICH MEETS STABILITY CRITERION OF THE ADVECTION TERM
 (FOR PURE FINITE-DIFFERENCE OPTION, MIXELM=0) 
 =  2.665    (WHEN MIN. R.F.=1)  AT K=   2, I=   1, J=  80


 TOTAL NUMBER OF POINT SOURCES/SINKS PRESENT IN THE FLOW MODEL =    62

 MAXIMUM STEPSIZE WHICH MEETS STABILITY CRITERION OF THE SINK & SOURCE TERM
 =  77.56    (WHEN MIN. R.F.=1)  AT K=   2, I=   1, J= 120

 MAXIMUM STEPSIZE WHICH MEETS STABILITY CRITERION OF THE DISPERSION TERM
 =  20.29    (WHEN MIN. R.F.=1)  AT K=   1, I=   1, J=  31


     1 CALLS TO GCG PACKAGE FOR TRANSPORT TIME STEP   1 IN FLOW TIME STEP  82 STRESS PERIOD   1
     5 TOTAL ITERATIONS

 NO OUTPUT CONTROL FOR STRESS PERIOD    1   TIME STEP  82
 
 SOLVING FOR HEAD 
 FLOW MODEL IS TRANSIENT
 FLOW MODEL CONTAINS CONSTANT-HEAD CELLS


 MAXIMUM STEPSIZE DURING WHICH ANY PARTICLE CANNOT MOVE MORE THAN ONE CELL
 =  3.691    (WHEN MIN. R.F.=1)  AT K=   4, I=   1, J=  74

 MAXIMUM STEPSIZE WHICH MEETS STABILITY CRITERION OF THE ADVECTION TERM
 (FOR PURE FINITE-DIFFERENCE OPTION, MIXELM=0) 
 =  2.725    (WHEN MIN. R.F.=1)  AT K=   2, I=   1, J=  80


 TOTAL NUMBER OF POINT SOURCES/SINKS PRESENT IN THE FLOW MODEL =    62

 MAXIMUM STEPSIZE WHICH MEETS STABILITY CRITERION OF THE SINK & SOURCE TERM
 =  76.24    (WHEN MIN. R.F.=1)  AT K=   2, I=   1, J= 120

 MAXIMUM STEPSIZE WHICH MEETS STABILITY CRITERION OF THE DISPERSION TERM
 =  20.29    (WHEN MIN. R.F.=1)  AT K=   1, I=   1, J=  31
     1 CALLS TO GCG PACKAGE FOR TRANSPORT TIME STEP   2 IN FLOW TIME STEP  82 STRESS PERIOD   1
     5 TOTAL ITERATIONS
 
 SOLVING FOR HEAD 
 FLOW MODEL IS TRANSIENT
 FLOW MODEL CONTAINS CONSTANT-HEAD CELLS


 MAXIMUM STEPSIZE DURING WHICH ANY PARTICLE CANNOT MOVE MORE THAN ONE CELL
 =  3.755    (WHEN MIN. R.F.=1)  AT K=   4, I=   1, J=  74

 MAXIMUM STEPSIZE WHICH MEETS STABILITY CRITERION OF THE ADVECTION TERM
 (FOR PURE FINITE-DIFFERENCE OPTION, MIXELM=0) 
 =  2.911    (WHEN MIN. R.F.=1)  AT K=   2, I=   1, J=  80


 TOTAL NUMBER OF POINT SOURCES/SINKS PRESENT IN THE FLOW MODEL =    62

 MAXIMUM STEPSIZE WHICH MEETS STABILITY CRITERION OF THE SINK & SOURCE TERM
 =  77.11    (WHEN MIN. R.F.=1)  AT K=   2, I=   1, J= 120

 MAXIMUM STEPSIZE WHICH MEETS STABILITY CRITERION OF THE DISPERSION TERM
 =  20.29    (WHEN MIN. R.F.=1)  AT K=   1, I=   1, J=  31
     1 CALLS TO GCG PACKAGE FOR TRANSPORT TIME STEP   3 IN FLOW TIME STEP  82 STRESS PERIOD   1
     5 TOTAL ITERATIONS
 
 SOLVING FOR HEAD 
 FLOW MODEL IS TRANSIENT
 FLOW MODEL CONTAINS CONSTANT-HEAD CELLS


 MAXIMUM STEPSIZE DURING WHICH ANY PARTICLE CANNOT MOVE MORE THAN ONE CELL
 =  3.840    (WHEN MIN. R.F.=1)  AT K=   4, I=   1, J=  74

 MAXIMUM STEPSIZE WHICH MEETS STABILITY CRITERION OF THE ADVECTION TERM
 (FOR PURE FINITE-DIFFERENCE OPTION, MIXELM=0) 
 =  2.980    (WHEN MIN. R.F.=1)  AT K=   2, I=   1, J=  79


 TOTAL NUMBER OF POINT SOURCES/SINKS PRESENT IN THE FLOW MODEL =    62

 MAXIMUM STEPSIZE WHICH MEETS STABILITY CRITERION OF THE SINK & SOURCE TERM
 =  78.01    (WHEN MIN. R.F.=1)  AT K=   2, I=   1, J= 120

 MAXIMUM STEPSIZE WHICH MEETS STABILITY CRITERION OF THE DISPERSION TERM
 =  20.29    (WHEN MIN. R.F.=1)  AT K=   1, I=   1, J=  31
     1 CALLS TO GCG PACKAGE FOR TRANSPORT TIME STEP   4 IN FLOW TIME STEP  82 STRESS PERIOD   1
     6 TOTAL ITERATIONS
 
 SOLVING FOR HEAD 
 FLOW MODEL IS TRANSIENT
 FLOW MODEL CONTAINS CONSTANT-HEAD CELLS


 MAXIMUM STEPSIZE DURING WHICH ANY PARTICLE CANNOT MOVE MORE THAN ONE CELL
 =  3.942    (WHEN MIN. R.F.=1)  AT K=   5, I=   1, J=  74

 MAXIMUM STEPSIZE WHICH MEETS STABILITY CRITERION OF THE ADVECTION TERM
 (FOR PURE FINITE-DIFFERENCE OPTION, MIXELM=0) 
 =  2.793    (WHEN MIN. R.F.=1)  AT K=   2, I=   1, J=  79


 TOTAL NUMBER OF POINT SOURCES/SINKS PRESENT IN THE FLOW MODEL =    62

 MAXIMUM STEPSIZE WHICH MEETS STABILITY CRITERION OF THE SINK & SOURCE TERM
 =  78.40    (WHEN MIN. R.F.=1)  AT K=   2, I=   1, J= 120

 MAXIMUM STEPSIZE WHICH MEETS STABILITY CRITERION OF THE DISPERSION TERM
 =  20.29    (WHEN MIN. R.F.=1)  AT K=   1, I=   1, J=  31
     1 CALLS TO GCG PACKAGE FOR TRANSPORT TIME STEP   5 IN FLOW TIME STEP  82 STRESS PERIOD   1
     5 TOTAL ITERATIONS
  MAXIMUM CONCENTRATION CHANGES FOR EACH ITERATION:
  MAX. CHANGE LAYER,ROW,COL MAX. CHANGE LAYER,ROW,COL MAX. CHANGE LAYER,ROW,COL MAX. CHANGE LAYER,ROW,COL MAX. CHANGE LAYER,ROW,COL
 ------------------------------------------------------------------------------------------------------------------------------------
   0.2777E-01 (  2,  1, 61)  0.1001E-02 (  2,  1, 79)  0.2743E-04 (  3,  1, 79)  0.1453E-05 (  3,  1, 76)  0.3713E-07 (  4,  1, 76)


                                          ================================================
                                                         FROM TIME =   820.00     TO    830.00    

 
 SOLVING FOR HEAD 
 FLOW MODEL IS TRANSIENT
 FLOW MODEL CONTAINS CONSTANT-HEAD CELLS


 MAXIMUM STEPSIZE DURING WHICH ANY PARTICLE CANNOT MOVE MORE THAN ONE CELL
 =  4.026    (WHEN MIN. R.F.=1)  AT K=   5, I=   1, J=  74

 MAXIMUM STEPSIZE WHICH MEETS STABILITY CRITERION OF THE ADVECTION TERM
 (FOR PURE FINITE-DIFFERENCE OPTION, MIXELM=0) 
 =  2.734    (WHEN MIN. R.F.=1)  AT K=   2, I=   1, J=  79


 TOTAL NUMBER OF POINT SOURCES/SINKS PRESENT IN THE FLOW MODEL =    62

 MAXIMUM STEPSIZE WHICH MEETS STABILITY CRITERION OF THE SINK & SOURCE TERM
 =  79.76    (WHEN MIN. R.F.=1)  AT K=   2, I=   1, J= 120

 MAXIMUM STEPSIZE WHICH MEETS STABILITY CRITERION OF THE DISPERSION TERM
 =  20.29    (WHEN MIN. R.F.=1)  AT K=   1, I=   1, J=  31


     1 CALLS TO GCG PACKAGE FOR TRANSPORT TIME STEP   1 IN FLOW TIME STEP  83 STRESS PERIOD   1
     5 TOTAL ITERATIONS

 NO OUTPUT CONTROL FOR STRESS PERIOD    1   TIME STEP  83
 
 SOLVING FOR HEAD 
 FLOW MODEL IS TRANSIENT
 FLOW MODEL CONTAINS CONSTANT-HEAD CELLS


 MAXIMUM STEPSIZE DURING WHICH ANY PARTICLE CANNOT MOVE MORE THAN ONE CELL
 =  4.147    (WHEN MIN. R.F.=1)  AT K=   5, I=   1, J=  74

 MAXIMUM STEPSIZE WHICH MEETS STABILITY CRITERION OF THE ADVECTION TERM
 (FOR PURE FINITE-DIFFERENCE OPTION, MIXELM=0) 
 =  2.747    (WHEN MIN. R.F.=1)  AT K=   2, I=   1, J=  79


 TOTAL NUMBER OF POINT SOURCES/SINKS PRESENT IN THE FLOW MODEL =    62

 MAXIMUM STEPSIZE WHICH MEETS STABILITY CRITERION OF THE SINK & SOURCE TERM
 =  79.25    (WHEN MIN. R.F.=1)  AT K=   2, I=   1, J= 120

 MAXIMUM STEPSIZE WHICH MEETS STABILITY CRITERION OF THE DISPERSION TERM
 =  20.29    (WHEN MIN. R.F.=1)  AT K=   1, I=   1, J=  31
     1 CALLS TO GCG PACKAGE FOR TRANSPORT TIME STEP   2 IN FLOW TIME STEP  83 STRESS PERIOD   1
     6 TOTAL ITERATIONS
 
 SOLVING FOR HEAD 
 FLOW MODEL IS TRANSIENT
 FLOW MODEL CONTAINS CONSTANT-HEAD CELLS


 MAXIMUM STEPSIZE DURING WHICH ANY PARTICLE CANNOT MOVE MORE THAN ONE CELL
 =  4.217    (WHEN MIN. R.F.=1)  AT K=   4, I=   1, J=  48

 MAXIMUM STEPSIZE WHICH MEETS STABILITY CRITERION OF THE ADVECTION TERM
 (FOR PURE FINITE-DIFFERENCE OPTION, MIXELM=0) 
 =  2.837    (WHEN MIN. R.F.=1)  AT K=   2, I=   1, J=  79


 TOTAL NUMBER OF POINT SOURCES/SINKS PRESENT IN THE FLOW MODEL =    62

 MAXIMUM STEPSIZE WHICH MEETS STABILITY CRITERION OF THE SINK & SOURCE TERM
 =  79.89    (WHEN MIN. R.F.=1)  AT K=   2, I=   1, J= 120

 MAXIMUM STEPSIZE WHICH MEETS STABILITY CRITERION OF THE DISPERSION TERM
 =  20.29    (WHEN MIN. R.F.=1)  AT K=   1, I=   1, J=  31
     1 CALLS TO GCG PACKAGE FOR TRANSPORT TIME STEP   3 IN FLOW TIME STEP  83 STRESS PERIOD   1
     6 TOTAL ITERATIONS
 
 SOLVING FOR HEAD 
 FLOW MODEL IS TRANSIENT
 FLOW MODEL CONTAINS CONSTANT-HEAD CELLS


 MAXIMUM STEPSIZE DURING WHICH ANY PARTICLE CANNOT MOVE MORE THAN ONE CELL
 =  4.178    (WHEN MIN. R.F.=1)  AT K=   4, I=   1, J=  48

 MAXIMUM STEPSIZE WHICH MEETS STABILITY CRITERION OF THE ADVECTION TERM
 (FOR PURE FINITE-DIFFERENCE OPTION, MIXELM=0) 
 =  3.052    (WHEN MIN. R.F.=1)  AT K=   2, I=   1, J=  79


 TOTAL NUMBER OF POINT SOURCES/SINKS PRESENT IN THE FLOW MODEL =    62

 MAXIMUM STEPSIZE WHICH MEETS STABILITY CRITERION OF THE SINK & SOURCE TERM
 =  80.45    (WHEN MIN. R.F.=1)  AT K=   2, I=   1, J= 120

 MAXIMUM STEPSIZE WHICH MEETS STABILITY CRITERION OF THE DISPERSION TERM
 =  20.29    (WHEN MIN. R.F.=1)  AT K=   1, I=   1, J=  31
     1 CALLS TO GCG PACKAGE FOR TRANSPORT TIME STEP   4 IN FLOW TIME STEP  83 STRESS PERIOD   1
     6 TOTAL ITERATIONS
 
 SOLVING FOR HEAD 
 FLOW MODEL IS TRANSIENT
 FLOW MODEL CONTAINS CONSTANT-HEAD CELLS


 MAXIMUM STEPSIZE DURING WHICH ANY PARTICLE CANNOT MOVE MORE THAN ONE CELL
 =  4.152    (WHEN MIN. R.F.=1)  AT K=   4, I=   1, J=  48

 MAXIMUM STEPSIZE WHICH MEETS STABILITY CRITERION OF THE ADVECTION TERM
 (FOR PURE FINITE-DIFFERENCE OPTION, MIXELM=0) 
 =  2.944    (WHEN MIN. R.F.=1)  AT K=   2, I=   1, J=  42


 TOTAL NUMBER OF POINT SOURCES/SINKS PRESENT IN THE FLOW MODEL =    62

 MAXIMUM STEPSIZE WHICH MEETS STABILITY CRITERION OF THE SINK & SOURCE TERM
 =  79.97    (WHEN MIN. R.F.=1)  AT K=   2, I=   1, J= 120

 MAXIMUM STEPSIZE WHICH MEETS STABILITY CRITERION OF THE DISPERSION TERM
 =  20.29    (WHEN MIN. R.F.=1)  AT K=   1, I=   1, J=  31
     1 CALLS TO GCG PACKAGE FOR TRANSPORT TIME STEP   5 IN FLOW TIME STEP  83 STRESS PERIOD   1
     5 TOTAL ITERATIONS
  MAXIMUM CONCENTRATION CHANGES FOR EACH ITERATION:
  MAX. CHANGE LAYER,ROW,COL MAX. CHANGE LAYER,ROW,COL MAX. CHANGE LAYER,ROW,COL MAX. CHANGE LAYER,ROW,COL MAX. CHANGE LAYER,ROW,COL
 ------------------------------------------------------------------------------------------------------------------------------------
   0.2567E-01 (  2,  1, 80)  0.8728E-03 (  2,  1, 78)  0.2369E-04 (  3,  1, 78)  0.1005E-05 (  3,  1, 76)  0.3074E-07 (  4,  1, 76)


                                          ================================================
                                                         FROM TIME =   830.00     TO    840.00    

 
 SOLVING FOR HEAD 
 FLOW MODEL IS TRANSIENT
 FLOW MODEL CONTAINS CONSTANT-HEAD CELLS


 MAXIMUM STEPSIZE DURING WHICH ANY PARTICLE CANNOT MOVE MORE THAN ONE CELL
 =  4.151    (WHEN MIN. R.F.=1)  AT K=   4, I=   1, J=  48

 MAXIMUM STEPSIZE WHICH MEETS STABILITY CRITERION OF THE ADVECTION TERM
 (FOR PURE FINITE-DIFFERENCE OPTION, MIXELM=0) 
 =  2.821    (WHEN MIN. R.F.=1)  AT K=   2, I=   1, J=  78


 TOTAL NUMBER OF POINT SOURCES/SINKS PRESENT IN THE FLOW MODEL =    62

 MAXIMUM STEPSIZE WHICH MEETS STABILITY CRITERION OF THE SINK & SOURCE TERM
 =  81.36    (WHEN MIN. R.F.=1)  AT K=   2, I=   1, J= 120

 MAXIMUM STEPSIZE WHICH MEETS STABILITY CRITERION OF THE DISPERSION TERM
 =  20.29    (WHEN MIN. R.F.=1)  AT K=   1, I=   1, J=  31


     1 CALLS TO GCG PACKAGE FOR TRANSPORT TIME STEP   1 IN FLOW TIME STEP  84 STRESS PERIOD   1
     6 TOTAL ITERATIONS

 NO OUTPUT CONTROL FOR STRESS PERIOD    1   TIME STEP  84
 
 SOLVING FOR HEAD 
 FLOW MODEL IS TRANSIENT
 FLOW MODEL CONTAINS CONSTANT-HEAD CELLS


 MAXIMUM STEPSIZE DURING WHICH ANY PARTICLE CANNOT MOVE MORE THAN ONE CELL
 =  4.169    (WHEN MIN. R.F.=1)  AT K=   4, I=   1, J=  48

 MAXIMUM STEPSIZE WHICH MEETS STABILITY CRITERION OF THE ADVECTION TERM
 (FOR PURE FINITE-DIFFERENCE OPTION, MIXELM=0) 
 =  2.707    (WHEN MIN. R.F.=1)  AT K=   2, I=   1, J=  78


 TOTAL NUMBER OF POINT SOURCES/SINKS PRESENT IN THE FLOW MODEL =    62

 MAXIMUM STEPSIZE WHICH MEETS STABILITY CRITERION OF THE SINK & SOURCE TERM
 =  80.59    (WHEN MIN. R.F.=1)  AT K=   2, I=   1, J= 120

 MAXIMUM STEPSIZE WHICH MEETS STABILITY CRITERION OF THE DISPERSION TERM
 =  20.29    (WHEN MIN. R.F.=1)  AT K=   1, I=   1, J=  31
     1 CALLS TO GCG PACKAGE FOR TRANSPORT TIME STEP   2 IN FLOW TIME STEP  84 STRESS PERIOD   1
     6 TOTAL ITERATIONS
 
 SOLVING FOR HEAD 
 FLOW MODEL IS TRANSIENT
 FLOW MODEL CONTAINS CONSTANT-HEAD CELLS


 MAXIMUM STEPSIZE DURING WHICH ANY PARTICLE CANNOT MOVE MORE THAN ONE CELL
 =  4.210    (WHEN MIN. R.F.=1)  AT K=   4, I=   1, J=  48

 MAXIMUM STEPSIZE WHICH MEETS STABILITY CRITERION OF THE ADVECTION TERM
 (FOR PURE FINITE-DIFFERENCE OPTION, MIXELM=0) 
 =  2.703    (WHEN MIN. R.F.=1)  AT K=   2, I=   1, J=  78


 TOTAL NUMBER OF POINT SOURCES/SINKS PRESENT IN THE FLOW MODEL =    62

 MAXIMUM STEPSIZE WHICH MEETS STABILITY CRITERION OF THE SINK & SOURCE TERM
 =  83.12    (WHEN MIN. R.F.=1)  AT K=   2, I=   1, J= 120

 MAXIMUM STEPSIZE WHICH MEETS STABILITY CRITERION OF THE DISPERSION TERM
 =  20.29    (WHEN MIN. R.F.=1)  AT K=   1, I=   1, J=  31
     1 CALLS TO GCG PACKAGE FOR TRANSPORT TIME STEP   3 IN FLOW TIME STEP  84 STRESS PERIOD   1
     5 TOTAL ITERATIONS
 
 SOLVING FOR HEAD 
 FLOW MODEL IS TRANSIENT
 FLOW MODEL CONTAINS CONSTANT-HEAD CELLS


 MAXIMUM STEPSIZE DURING WHICH ANY PARTICLE CANNOT MOVE MORE THAN ONE CELL
 =  4.273    (WHEN MIN. R.F.=1)  AT K=   4, I=   1, J=  48

 MAXIMUM STEPSIZE WHICH MEETS STABILITY CRITERION OF THE ADVECTION TERM
 (FOR PURE FINITE-DIFFERENCE OPTION, MIXELM=0) 
 =  2.774    (WHEN MIN. R.F.=1)  AT K=   2, I=   1, J=  78


 TOTAL NUMBER OF POINT SOURCES/SINKS PRESENT IN THE FLOW MODEL =    62

 MAXIMUM STEPSIZE WHICH MEETS STABILITY CRITERION OF THE SINK & SOURCE TERM
 =  84.77    (WHEN MIN. R.F.=1)  AT K=   2, I=   1, J= 120

 MAXIMUM STEPSIZE WHICH MEETS STABILITY CRITERION OF THE DISPERSION TERM
 =  20.29    (WHEN MIN. R.F.=1)  AT K=   1, I=   1, J=  31
     1 CALLS TO GCG PACKAGE FOR TRANSPORT TIME STEP   4 IN FLOW TIME STEP  84 STRESS PERIOD   1
     5 TOTAL ITERATIONS
 
 SOLVING FOR HEAD 
 FLOW MODEL IS TRANSIENT
 FLOW MODEL CONTAINS CONSTANT-HEAD CELLS


 MAXIMUM STEPSIZE DURING WHICH ANY PARTICLE CANNOT MOVE MORE THAN ONE CELL
 =  4.358    (WHEN MIN. R.F.=1)  AT K=   4, I=   1, J=  48

 MAXIMUM STEPSIZE WHICH MEETS STABILITY CRITERION OF THE ADVECTION TERM
 (FOR PURE FINITE-DIFFERENCE OPTION, MIXELM=0) 
 =  2.947    (WHEN MIN. R.F.=1)  AT K=   2, I=   1, J=  78


 TOTAL NUMBER OF POINT SOURCES/SINKS PRESENT IN THE FLOW MODEL =    62

 MAXIMUM STEPSIZE WHICH MEETS STABILITY CRITERION OF THE SINK & SOURCE TERM
 =  84.64    (WHEN MIN. R.F.=1)  AT K=   2, I=   1, J= 120

 MAXIMUM STEPSIZE WHICH MEETS STABILITY CRITERION OF THE DISPERSION TERM
 =  20.29    (WHEN MIN. R.F.=1)  AT K=   1, I=   1, J=  31
     1 CALLS TO GCG PACKAGE FOR TRANSPORT TIME STEP   5 IN FLOW TIME STEP  84 STRESS PERIOD   1
     5 TOTAL ITERATIONS
  MAXIMUM CONCENTRATION CHANGES FOR EACH ITERATION:
  MAX. CHANGE LAYER,ROW,COL MAX. CHANGE LAYER,ROW,COL MAX. CHANGE LAYER,ROW,COL MAX. CHANGE LAYER,ROW,COL MAX. CHANGE LAYER,ROW,COL
 ------------------------------------------------------------------------------------------------------------------------------------
   0.2734E-01 (  2,  1, 79)  0.8831E-03 (  2,  1, 77)  0.3188E-04 (  3,  1, 77)  0.8626E-06 (  4,  1, 77)  0.2705E-07 (  4,  1, 78)


                                          ================================================
                                                         FROM TIME =   840.00     TO    850.00    

 
 SOLVING FOR HEAD 
 FLOW MODEL IS TRANSIENT
 FLOW MODEL CONTAINS CONSTANT-HEAD CELLS


 MAXIMUM STEPSIZE DURING WHICH ANY PARTICLE CANNOT MOVE MORE THAN ONE CELL
 =  4.440    (WHEN MIN. R.F.=1)  AT K=   4, I=   1, J=  48

 MAXIMUM STEPSIZE WHICH MEETS STABILITY CRITERION OF THE ADVECTION TERM
 (FOR PURE FINITE-DIFFERENCE OPTION, MIXELM=0) 
 =  2.927    (WHEN MIN. R.F.=1)  AT K=   2, I=   1, J=  43


 TOTAL NUMBER OF POINT SOURCES/SINKS PRESENT IN THE FLOW MODEL =    62

 MAXIMUM STEPSIZE WHICH MEETS STABILITY CRITERION OF THE SINK & SOURCE TERM
 =  85.62    (WHEN MIN. R.F.=1)  AT K=   2, I=   1, J= 120

 MAXIMUM STEPSIZE WHICH MEETS STABILITY CRITERION OF THE DISPERSION TERM
 =  20.29    (WHEN MIN. R.F.=1)  AT K=   1, I=   1, J=  31


     1 CALLS TO GCG PACKAGE FOR TRANSPORT TIME STEP   1 IN FLOW TIME STEP  85 STRESS PERIOD   1
     6 TOTAL ITERATIONS

 NO OUTPUT CONTROL FOR STRESS PERIOD    1   TIME STEP  85
 
 SOLVING FOR HEAD 
 FLOW MODEL IS TRANSIENT
 FLOW MODEL CONTAINS CONSTANT-HEAD CELLS


 MAXIMUM STEPSIZE DURING WHICH ANY PARTICLE CANNOT MOVE MORE THAN ONE CELL
 =  4.565    (WHEN MIN. R.F.=1)  AT K=   4, I=   1, J=  48

 MAXIMUM STEPSIZE WHICH MEETS STABILITY CRITERION OF THE ADVECTION TERM
 (FOR PURE FINITE-DIFFERENCE OPTION, MIXELM=0) 
 =  2.815    (WHEN MIN. R.F.=1)  AT K=   2, I=   1, J=  43


 TOTAL NUMBER OF POINT SOURCES/SINKS PRESENT IN THE FLOW MODEL =    62

 MAXIMUM STEPSIZE WHICH MEETS STABILITY CRITERION OF THE SINK & SOURCE TERM
 =  84.77    (WHEN MIN. R.F.=1)  AT K=   2, I=   1, J= 120

 MAXIMUM STEPSIZE WHICH MEETS STABILITY CRITERION OF THE DISPERSION TERM
 =  20.29    (WHEN MIN. R.F.=1)  AT K=   1, I=   1, J=  31
     1 CALLS TO GCG PACKAGE FOR TRANSPORT TIME STEP   2 IN FLOW TIME STEP  85 STRESS PERIOD   1
     6 TOTAL ITERATIONS
 
 SOLVING FOR HEAD 
 FLOW MODEL IS TRANSIENT
 FLOW MODEL CONTAINS CONSTANT-HEAD CELLS


 MAXIMUM STEPSIZE DURING WHICH ANY PARTICLE CANNOT MOVE MORE THAN ONE CELL
 =  4.702    (WHEN MIN. R.F.=1)  AT K=   4, I=   1, J=  48

 MAXIMUM STEPSIZE WHICH MEETS STABILITY CRITERION OF THE ADVECTION TERM
 (FOR PURE FINITE-DIFFERENCE OPTION, MIXELM=0) 
 =  2.823    (WHEN MIN. R.F.=1)  AT K=   2, I=   1, J=  43


 TOTAL NUMBER OF POINT SOURCES/SINKS PRESENT IN THE FLOW MODEL =    62

 MAXIMUM STEPSIZE WHICH MEETS STABILITY CRITERION OF THE SINK & SOURCE TERM
 =  85.87    (WHEN MIN. R.F.=1)  AT K=   2, I=   1, J= 120

 MAXIMUM STEPSIZE WHICH MEETS STABILITY CRITERION OF THE DISPERSION TERM
 =  20.29    (WHEN MIN. R.F.=1)  AT K=   1, I=   1, J=  31
     1 CALLS TO GCG PACKAGE FOR TRANSPORT TIME STEP   3 IN FLOW TIME STEP  85 STRESS PERIOD   1
     6 TOTAL ITERATIONS
 
 SOLVING FOR HEAD 
 FLOW MODEL IS TRANSIENT
 FLOW MODEL CONTAINS CONSTANT-HEAD CELLS


 MAXIMUM STEPSIZE DURING WHICH ANY PARTICLE CANNOT MOVE MORE THAN ONE CELL
 =  4.793    (WHEN MIN. R.F.=1)  AT K=   3, I=   1, J=  77

 MAXIMUM STEPSIZE WHICH MEETS STABILITY CRITERION OF THE ADVECTION TERM
 (FOR PURE FINITE-DIFFERENCE OPTION, MIXELM=0) 
 =  2.806    (WHEN MIN. R.F.=1)  AT K=   2, I=   1, J=  77


 TOTAL NUMBER OF POINT SOURCES/SINKS PRESENT IN THE FLOW MODEL =    62

 MAXIMUM STEPSIZE WHICH MEETS STABILITY CRITERION OF THE SINK & SOURCE TERM
 =  88.15    (WHEN MIN. R.F.=1)  AT K=   2, I=   1, J= 120

 MAXIMUM STEPSIZE WHICH MEETS STABILITY CRITERION OF THE DISPERSION TERM
 =  20.29    (WHEN MIN. R.F.=1)  AT K=   1, I=   1, J=  31
     1 CALLS TO GCG PACKAGE FOR TRANSPORT TIME STEP   4 IN FLOW TIME STEP  85 STRESS PERIOD   1
     6 TOTAL ITERATIONS
 
 SOLVING FOR HEAD 
 FLOW MODEL IS TRANSIENT
 FLOW MODEL CONTAINS CONSTANT-HEAD CELLS


 MAXIMUM STEPSIZE DURING WHICH ANY PARTICLE CANNOT MOVE MORE THAN ONE CELL
 =  4.820    (WHEN MIN. R.F.=1)  AT K=   4, I=   1, J=  59

 MAXIMUM STEPSIZE WHICH MEETS STABILITY CRITERION OF THE ADVECTION TERM
 (FOR PURE FINITE-DIFFERENCE OPTION, MIXELM=0) 
 =  2.857    (WHEN MIN. R.F.=1)  AT K=   2, I=   1, J=  77


 TOTAL NUMBER OF POINT SOURCES/SINKS PRESENT IN THE FLOW MODEL =    62

 MAXIMUM STEPSIZE WHICH MEETS STABILITY CRITERION OF THE SINK & SOURCE TERM
 =  87.81    (WHEN MIN. R.F.=1)  AT K=   2, I=   1, J= 120

 MAXIMUM STEPSIZE WHICH MEETS STABILITY CRITERION OF THE DISPERSION TERM
 =  20.29    (WHEN MIN. R.F.=1)  AT K=   1, I=   1, J=  31
     1 CALLS TO GCG PACKAGE FOR TRANSPORT TIME STEP   5 IN FLOW TIME STEP  85 STRESS PERIOD   1
     5 TOTAL ITERATIONS
  MAXIMUM CONCENTRATION CHANGES FOR EACH ITERATION:
  MAX. CHANGE LAYER,ROW,COL MAX. CHANGE LAYER,ROW,COL MAX. CHANGE LAYER,ROW,COL MAX. CHANGE LAYER,ROW,COL MAX. CHANGE LAYER,ROW,COL
 ------------------------------------------------------------------------------------------------------------------------------------
   0.2555E-01 (  2,  1, 78)  0.5728E-03 (  2,  1, 75)  0.1424E-04 (  3,  1, 75)  0.4429E-06 (  3,  1, 79)  0.1255E-07 (  3,  1, 80)


                                          ================================================
                                                         FROM TIME =   850.00     TO    860.00    

 
 SOLVING FOR HEAD 
 FLOW MODEL IS TRANSIENT
 FLOW MODEL CONTAINS CONSTANT-HEAD CELLS


 MAXIMUM STEPSIZE DURING WHICH ANY PARTICLE CANNOT MOVE MORE THAN ONE CELL
 =  4.792    (WHEN MIN. R.F.=1)  AT K=   4, I=   1, J=  59

 MAXIMUM STEPSIZE WHICH MEETS STABILITY CRITERION OF THE ADVECTION TERM
 (FOR PURE FINITE-DIFFERENCE OPTION, MIXELM=0) 
 =  2.948    (WHEN MIN. R.F.=1)  AT K=   2, I=   1, J=  77


 TOTAL NUMBER OF POINT SOURCES/SINKS PRESENT IN THE FLOW MODEL =    62

 MAXIMUM STEPSIZE WHICH MEETS STABILITY CRITERION OF THE SINK & SOURCE TERM
 =  88.71    (WHEN MIN. R.F.=1)  AT K=   2, I=   1, J= 120

 MAXIMUM STEPSIZE WHICH MEETS STABILITY CRITERION OF THE DISPERSION TERM
 =  20.29    (WHEN MIN. R.F.=1)  AT K=   1, I=   1, J=  31


     1 CALLS TO GCG PACKAGE FOR TRANSPORT TIME STEP   1 IN FLOW TIME STEP  86 STRESS PERIOD   1
     6 TOTAL ITERATIONS

 NO OUTPUT CONTROL FOR STRESS PERIOD    1   TIME STEP  86
 
 SOLVING FOR HEAD 
 FLOW MODEL IS TRANSIENT
 FLOW MODEL CONTAINS CONSTANT-HEAD CELLS


 MAXIMUM STEPSIZE DURING WHICH ANY PARTICLE CANNOT MOVE MORE THAN ONE CELL
 =  4.750    (WHEN MIN. R.F.=1)  AT K=   4, I=   1, J=  59

 MAXIMUM STEPSIZE WHICH MEETS STABILITY CRITERION OF THE ADVECTION TERM
 (FOR PURE FINITE-DIFFERENCE OPTION, MIXELM=0) 
 =  2.976    (WHEN MIN. R.F.=1)  AT K=   2, I=   1, J=  44


 TOTAL NUMBER OF POINT SOURCES/SINKS PRESENT IN THE FLOW MODEL =    62

 MAXIMUM STEPSIZE WHICH MEETS STABILITY CRITERION OF THE SINK & SOURCE TERM
 =  86.11    (WHEN MIN. R.F.=1)  AT K=   2, I=   1, J= 120

 MAXIMUM STEPSIZE WHICH MEETS STABILITY CRITERION OF THE DISPERSION TERM
 =  20.29    (WHEN MIN. R.F.=1)  AT K=   1, I=   1, J=  31
     1 CALLS TO GCG PACKAGE FOR TRANSPORT TIME STEP   2 IN FLOW TIME STEP  86 STRESS PERIOD   1
     6 TOTAL ITERATIONS
 
 SOLVING FOR HEAD 
 FLOW MODEL IS TRANSIENT
 FLOW MODEL CONTAINS CONSTANT-HEAD CELLS


 MAXIMUM STEPSIZE DURING WHICH ANY PARTICLE CANNOT MOVE MORE THAN ONE CELL
 =  4.705    (WHEN MIN. R.F.=1)  AT K=   4, I=   1, J=  59

 MAXIMUM STEPSIZE WHICH MEETS STABILITY CRITERION OF THE ADVECTION TERM
 (FOR PURE FINITE-DIFFERENCE OPTION, MIXELM=0) 
 =  2.879    (WHEN MIN. R.F.=1)  AT K=   2, I=   1, J=  44


 TOTAL NUMBER OF POINT SOURCES/SINKS PRESENT IN THE FLOW MODEL =    62

 MAXIMUM STEPSIZE WHICH MEETS STABILITY CRITERION OF THE SINK & SOURCE TERM
 =  85.55    (WHEN MIN. R.F.=1)  AT K=   2, I=   1, J= 120

 MAXIMUM STEPSIZE WHICH MEETS STABILITY CRITERION OF THE DISPERSION TERM
 =  20.29    (WHEN MIN. R.F.=1)  AT K=   1, I=   1, J=  31
     1 CALLS TO GCG PACKAGE FOR TRANSPORT TIME STEP   3 IN FLOW TIME STEP  86 STRESS PERIOD   1
     6 TOTAL ITERATIONS
 
 SOLVING FOR HEAD 
 FLOW MODEL IS TRANSIENT
 FLOW MODEL CONTAINS CONSTANT-HEAD CELLS


 MAXIMUM STEPSIZE DURING WHICH ANY PARTICLE CANNOT MOVE MORE THAN ONE CELL
 =  4.664    (WHEN MIN. R.F.=1)  AT K=   4, I=   1, J=  59

 MAXIMUM STEPSIZE WHICH MEETS STABILITY CRITERION OF THE ADVECTION TERM
 (FOR PURE FINITE-DIFFERENCE OPTION, MIXELM=0) 
 =  2.894    (WHEN MIN. R.F.=1)  AT K=   2, I=   1, J=  44


 TOTAL NUMBER OF POINT SOURCES/SINKS PRESENT IN THE FLOW MODEL =    62

 MAXIMUM STEPSIZE WHICH MEETS STABILITY CRITERION OF THE SINK & SOURCE TERM
 =  85.50    (WHEN MIN. R.F.=1)  AT K=   2, I=   1, J= 120

 MAXIMUM STEPSIZE WHICH MEETS STABILITY CRITERION OF THE DISPERSION TERM
 =  20.29    (WHEN MIN. R.F.=1)  AT K=   1, I=   1, J=  31
     1 CALLS TO GCG PACKAGE FOR TRANSPORT TIME STEP   4 IN FLOW TIME STEP  86 STRESS PERIOD   1
     6 TOTAL ITERATIONS
 
 SOLVING FOR HEAD 
 FLOW MODEL IS TRANSIENT
 FLOW MODEL CONTAINS CONSTANT-HEAD CELLS


 MAXIMUM STEPSIZE DURING WHICH ANY PARTICLE CANNOT MOVE MORE THAN ONE CELL
 =  4.627    (WHEN MIN. R.F.=1)  AT K=   4, I=   1, J=  59

 MAXIMUM STEPSIZE WHICH MEETS STABILITY CRITERION OF THE ADVECTION TERM
 (FOR PURE FINITE-DIFFERENCE OPTION, MIXELM=0) 
 =  2.985    (WHEN MIN. R.F.=1)  AT K=   2, I=   1, J=  44


 TOTAL NUMBER OF POINT SOURCES/SINKS PRESENT IN THE FLOW MODEL =    62

 MAXIMUM STEPSIZE WHICH MEETS STABILITY CRITERION OF THE SINK & SOURCE TERM
 =  84.77    (WHEN MIN. R.F.=1)  AT K=   2, I=   1, J= 120

 MAXIMUM STEPSIZE WHICH MEETS STABILITY CRITERION OF THE DISPERSION TERM
 =  20.29    (WHEN MIN. R.F.=1)  AT K=   1, I=   1, J=  31
     1 CALLS TO GCG PACKAGE FOR TRANSPORT TIME STEP   5 IN FLOW TIME STEP  86 STRESS PERIOD   1
     5 TOTAL ITERATIONS
  MAXIMUM CONCENTRATION CHANGES FOR EACH ITERATION:
  MAX. CHANGE LAYER,ROW,COL MAX. CHANGE LAYER,ROW,COL MAX. CHANGE LAYER,ROW,COL MAX. CHANGE LAYER,ROW,COL MAX. CHANGE LAYER,ROW,COL
 ------------------------------------------------------------------------------------------------------------------------------------
   0.2006E-01 (  2,  1, 43)  0.4475E-03 (  2,  1, 76)  0.1058E-04 (  3,  1, 45)  0.2928E-06 (  3,  1, 75)  0.8183E-08 (  3,  1, 79)


                                          ================================================
                                                         FROM TIME =   860.00     TO    870.00    

 
 SOLVING FOR HEAD 
 FLOW MODEL IS TRANSIENT
 FLOW MODEL CONTAINS CONSTANT-HEAD CELLS


 MAXIMUM STEPSIZE DURING WHICH ANY PARTICLE CANNOT MOVE MORE THAN ONE CELL
 =  4.610    (WHEN MIN. R.F.=1)  AT K=   4, I=   1, J=  59

 MAXIMUM STEPSIZE WHICH MEETS STABILITY CRITERION OF THE ADVECTION TERM
 (FOR PURE FINITE-DIFFERENCE OPTION, MIXELM=0) 
 =  3.096    (WHEN MIN. R.F.=1)  AT K=   2, I=   1, J=  44


 TOTAL NUMBER OF POINT SOURCES/SINKS PRESENT IN THE FLOW MODEL =    62

 MAXIMUM STEPSIZE WHICH MEETS STABILITY CRITERION OF THE SINK & SOURCE TERM
 =  87.14    (WHEN MIN. R.F.=1)  AT K=   2, I=   1, J= 120

 MAXIMUM STEPSIZE WHICH MEETS STABILITY CRITERION OF THE DISPERSION TERM
 =  20.29    (WHEN MIN. R.F.=1)  AT K=   1, I=   1, J=  31


     1 CALLS TO GCG PACKAGE FOR TRANSPORT TIME STEP   1 IN FLOW TIME STEP  87 STRESS PERIOD   1
     6 TOTAL ITERATIONS

 NO OUTPUT CONTROL FOR STRESS PERIOD    1   TIME STEP  87
 
 SOLVING FOR HEAD 
 FLOW MODEL IS TRANSIENT
 FLOW MODEL CONTAINS CONSTANT-HEAD CELLS


 MAXIMUM STEPSIZE DURING WHICH ANY PARTICLE CANNOT MOVE MORE THAN ONE CELL
 =  4.579    (WHEN MIN. R.F.=1)  AT K=   4, I=   1, J=  59

 MAXIMUM STEPSIZE WHICH MEETS STABILITY CRITERION OF THE ADVECTION TERM
 (FOR PURE FINITE-DIFFERENCE OPTION, MIXELM=0) 
 =  3.185    (WHEN MIN. R.F.=1)  AT K=   2, I=   1, J=  76


 TOTAL NUMBER OF POINT SOURCES/SINKS PRESENT IN THE FLOW MODEL =    62

 MAXIMUM STEPSIZE WHICH MEETS STABILITY CRITERION OF THE SINK & SOURCE TERM
 =  84.65    (WHEN MIN. R.F.=1)  AT K=   2, I=   1, J= 120

 MAXIMUM STEPSIZE WHICH MEETS STABILITY CRITERION OF THE DISPERSION TERM
 =  20.29    (WHEN MIN. R.F.=1)  AT K=   1, I=   1, J=  31
     1 CALLS TO GCG PACKAGE FOR TRANSPORT TIME STEP   2 IN FLOW TIME STEP  87 STRESS PERIOD   1
     6 TOTAL ITERATIONS
 
 SOLVING FOR HEAD 
 FLOW MODEL IS TRANSIENT
 FLOW MODEL CONTAINS CONSTANT-HEAD CELLS


 MAXIMUM STEPSIZE DURING WHICH ANY PARTICLE CANNOT MOVE MORE THAN ONE CELL
 =  4.548    (WHEN MIN. R.F.=1)  AT K=   4, I=   1, J=  59

 MAXIMUM STEPSIZE WHICH MEETS STABILITY CRITERION OF THE ADVECTION TERM
 (FOR PURE FINITE-DIFFERENCE OPTION, MIXELM=0) 
 =  3.178    (WHEN MIN. R.F.=1)  AT K=   2, I=   1, J=  45


 TOTAL NUMBER OF POINT SOURCES/SINKS PRESENT IN THE FLOW MODEL =    62

 MAXIMUM STEPSIZE WHICH MEETS STABILITY CRITERION OF THE SINK & SOURCE TERM
 =  83.37    (WHEN MIN. R.F.=1)  AT K=   2, I=   1, J= 120

 MAXIMUM STEPSIZE WHICH MEETS STABILITY CRITERION OF THE DISPERSION TERM
 =  20.29    (WHEN MIN. R.F.=1)  AT K=   1, I=   1, J=  31
     1 CALLS TO GCG PACKAGE FOR TRANSPORT TIME STEP   3 IN FLOW TIME STEP  87 STRESS PERIOD   1
     6 TOTAL ITERATIONS
 
 SOLVING FOR HEAD 
 FLOW MODEL IS TRANSIENT
 FLOW MODEL CONTAINS CONSTANT-HEAD CELLS


 MAXIMUM STEPSIZE DURING WHICH ANY PARTICLE CANNOT MOVE MORE THAN ONE CELL
 =  4.520    (WHEN MIN. R.F.=1)  AT K=   4, I=   1, J=  59

 MAXIMUM STEPSIZE WHICH MEETS STABILITY CRITERION OF THE ADVECTION TERM
 (FOR PURE FINITE-DIFFERENCE OPTION, MIXELM=0) 
 =  3.047    (WHEN MIN. R.F.=1)  AT K=   2, I=   1, J=  45


 TOTAL NUMBER OF POINT SOURCES/SINKS PRESENT IN THE FLOW MODEL =    62

 MAXIMUM STEPSIZE WHICH MEETS STABILITY CRITERION OF THE SINK & SOURCE TERM
 =  81.53    (WHEN MIN. R.F.=1)  AT K=   2, I=   1, J= 120

 MAXIMUM STEPSIZE WHICH MEETS STABILITY CRITERION OF THE DISPERSION TERM
 =  20.29    (WHEN MIN. R.F.=1)  AT K=   1, I=   1, J=  31
     1 CALLS TO GCG PACKAGE FOR TRANSPORT TIME STEP   4 IN FLOW TIME STEP  87 STRESS PERIOD   1
     6 TOTAL ITERATIONS
 
 SOLVING FOR HEAD 
 FLOW MODEL IS TRANSIENT
 FLOW MODEL CONTAINS CONSTANT-HEAD CELLS


 MAXIMUM STEPSIZE DURING WHICH ANY PARTICLE CANNOT MOVE MORE THAN ONE CELL
 =  4.496    (WHEN MIN. R.F.=1)  AT K=   4, I=   1, J=  59

 MAXIMUM STEPSIZE WHICH MEETS STABILITY CRITERION OF THE ADVECTION TERM
 (FOR PURE FINITE-DIFFERENCE OPTION, MIXELM=0) 
 =  3.054    (WHEN MIN. R.F.=1)  AT K=   2, I=   1, J=  45


 TOTAL NUMBER OF POINT SOURCES/SINKS PRESENT IN THE FLOW MODEL =    62

 MAXIMUM STEPSIZE WHICH MEETS STABILITY CRITERION OF THE SINK & SOURCE TERM
 =  79.07    (WHEN MIN. R.F.=1)  AT K=   2, I=   1, J= 120

 MAXIMUM STEPSIZE WHICH MEETS STABILITY CRITERION OF THE DISPERSION TERM
 =  20.29    (WHEN MIN. R.F.=1)  AT K=   1, I=   1, J=  31
     1 CALLS TO GCG PACKAGE FOR TRANSPORT TIME STEP   5 IN FLOW TIME STEP  87 STRESS PERIOD   1
     4 TOTAL ITERATIONS
  MAXIMUM CONCENTRATION CHANGES FOR EACH ITERATION:
  MAX. CHANGE LAYER,ROW,COL MAX. CHANGE LAYER,ROW,COL MAX. CHANGE LAYER,ROW,COL MAX. CHANGE LAYER,ROW,COL MAX. CHANGE LAYER,ROW,COL
 ------------------------------------------------------------------------------------------------------------------------------------
   0.1120E-01 (  2,  1, 84)  0.1104E-03 (  2,  1, 47)  0.1356E-05 (  3,  1, 47)  0.1946E-07 (  3,  1, 62)


                                          ================================================
                                                         FROM TIME =   870.00     TO    880.00    

 
 SOLVING FOR HEAD 
 FLOW MODEL IS TRANSIENT
 FLOW MODEL CONTAINS CONSTANT-HEAD CELLS


 MAXIMUM STEPSIZE DURING WHICH ANY PARTICLE CANNOT MOVE MORE THAN ONE CELL
 =  4.493    (WHEN MIN. R.F.=1)  AT K=   4, I=   1, J=  59

 MAXIMUM STEPSIZE WHICH MEETS STABILITY CRITERION OF THE ADVECTION TERM
 (FOR PURE FINITE-DIFFERENCE OPTION, MIXELM=0) 
 =  3.073    (WHEN MIN. R.F.=1)  AT K=   2, I=   1, J=  45


 TOTAL NUMBER OF POINT SOURCES/SINKS PRESENT IN THE FLOW MODEL =    62

 MAXIMUM STEPSIZE WHICH MEETS STABILITY CRITERION OF THE SINK & SOURCE TERM
 =  82.11    (WHEN MIN. R.F.=1)  AT K=   2, I=   1, J= 120

 MAXIMUM STEPSIZE WHICH MEETS STABILITY CRITERION OF THE DISPERSION TERM
 =  20.29    (WHEN MIN. R.F.=1)  AT K=   1, I=   1, J=  31


     1 CALLS TO GCG PACKAGE FOR TRANSPORT TIME STEP   1 IN FLOW TIME STEP  88 STRESS PERIOD   1
     6 TOTAL ITERATIONS

 NO OUTPUT CONTROL FOR STRESS PERIOD    1   TIME STEP  88
 
 SOLVING FOR HEAD 
 FLOW MODEL IS TRANSIENT
 FLOW MODEL CONTAINS CONSTANT-HEAD CELLS


 MAXIMUM STEPSIZE DURING WHICH ANY PARTICLE CANNOT MOVE MORE THAN ONE CELL
 =  4.479    (WHEN MIN. R.F.=1)  AT K=   4, I=   1, J=  59

 MAXIMUM STEPSIZE WHICH MEETS STABILITY CRITERION OF THE ADVECTION TERM
 (FOR PURE FINITE-DIFFERENCE OPTION, MIXELM=0) 
 =  3.197    (WHEN MIN. R.F.=1)  AT K=   2, I=   1, J=  45


 TOTAL NUMBER OF POINT SOURCES/SINKS PRESENT IN THE FLOW MODEL =    62

 MAXIMUM STEPSIZE WHICH MEETS STABILITY CRITERION OF THE SINK & SOURCE TERM
 =  78.89    (WHEN MIN. R.F.=1)  AT K=   2, I=   1, J= 120

 MAXIMUM STEPSIZE WHICH MEETS STABILITY CRITERION OF THE DISPERSION TERM
 =  20.29    (WHEN MIN. R.F.=1)  AT K=   1, I=   1, J=  31
     1 CALLS TO GCG PACKAGE FOR TRANSPORT TIME STEP   2 IN FLOW TIME STEP  88 STRESS PERIOD   1
     6 TOTAL ITERATIONS
 
 SOLVING FOR HEAD 
 FLOW MODEL IS TRANSIENT
 FLOW MODEL CONTAINS CONSTANT-HEAD CELLS


 MAXIMUM STEPSIZE DURING WHICH ANY PARTICLE CANNOT MOVE MORE THAN ONE CELL
 =  4.234    (WHEN MIN. R.F.=1)  AT K=   4, I=   1, J=  74

 MAXIMUM STEPSIZE WHICH MEETS STABILITY CRITERION OF THE ADVECTION TERM
 (FOR PURE FINITE-DIFFERENCE OPTION, MIXELM=0) 
 =  3.250    (WHEN MIN. R.F.=1)  AT K=   2, I=   1, J=  82


 TOTAL NUMBER OF POINT SOURCES/SINKS PRESENT IN THE FLOW MODEL =    62

 MAXIMUM STEPSIZE WHICH MEETS STABILITY CRITERION OF THE SINK & SOURCE TERM
 =  78.53    (WHEN MIN. R.F.=1)  AT K=   2, I=   1, J= 120

 MAXIMUM STEPSIZE WHICH MEETS STABILITY CRITERION OF THE DISPERSION TERM
 =  20.29    (WHEN MIN. R.F.=1)  AT K=   1, I=   1, J=  31
     1 CALLS TO GCG PACKAGE FOR TRANSPORT TIME STEP   3 IN FLOW TIME STEP  88 STRESS PERIOD   1
     6 TOTAL ITERATIONS
 
 SOLVING FOR HEAD 
 FLOW MODEL IS TRANSIENT
 FLOW MODEL CONTAINS CONSTANT-HEAD CELLS


 MAXIMUM STEPSIZE DURING WHICH ANY PARTICLE CANNOT MOVE MORE THAN ONE CELL
 =  4.007    (WHEN MIN. R.F.=1)  AT K=   4, I=   1, J=  74

 MAXIMUM STEPSIZE WHICH MEETS STABILITY CRITERION OF THE ADVECTION TERM
 (FOR PURE FINITE-DIFFERENCE OPTION, MIXELM=0) 
 =  3.240    (WHEN MIN. R.F.=1)  AT K=   2, I=   1, J=  74


 TOTAL NUMBER OF POINT SOURCES/SINKS PRESENT IN THE FLOW MODEL =    62

 MAXIMUM STEPSIZE WHICH MEETS STABILITY CRITERION OF THE SINK & SOURCE TERM
 =  76.89    (WHEN MIN. R.F.=1)  AT K=   2, I=   1, J= 120

 MAXIMUM STEPSIZE WHICH MEETS STABILITY CRITERION OF THE DISPERSION TERM
 =  20.29    (WHEN MIN. R.F.=1)  AT K=   1, I=   1, J=  31
     1 CALLS TO GCG PACKAGE FOR TRANSPORT TIME STEP   4 IN FLOW TIME STEP  88 STRESS PERIOD   1
     6 TOTAL ITERATIONS
 
 SOLVING FOR HEAD 
 FLOW MODEL IS TRANSIENT
 FLOW MODEL CONTAINS CONSTANT-HEAD CELLS


 MAXIMUM STEPSIZE DURING WHICH ANY PARTICLE CANNOT MOVE MORE THAN ONE CELL
 =  3.843    (WHEN MIN. R.F.=1)  AT K=   4, I=   1, J=  74

 MAXIMUM STEPSIZE WHICH MEETS STABILITY CRITERION OF THE ADVECTION TERM
 (FOR PURE FINITE-DIFFERENCE OPTION, MIXELM=0) 
 =  3.085    (WHEN MIN. R.F.=1)  AT K=   2, I=   1, J=  74


 TOTAL NUMBER OF POINT SOURCES/SINKS PRESENT IN THE FLOW MODEL =    62

 MAXIMUM STEPSIZE WHICH MEETS STABILITY CRITERION OF THE SINK & SOURCE TERM
 =  73.86    (WHEN MIN. R.F.=1)  AT K=   2, I=   1, J= 120

 MAXIMUM STEPSIZE WHICH MEETS STABILITY CRITERION OF THE DISPERSION TERM
 =  20.29    (WHEN MIN. R.F.=1)  AT K=   1, I=   1, J=  31
     1 CALLS TO GCG PACKAGE FOR TRANSPORT TIME STEP   5 IN FLOW TIME STEP  88 STRESS PERIOD   1
     4 TOTAL ITERATIONS
  MAXIMUM CONCENTRATION CHANGES FOR EACH ITERATION:
  MAX. CHANGE LAYER,ROW,COL MAX. CHANGE LAYER,ROW,COL MAX. CHANGE LAYER,ROW,COL MAX. CHANGE LAYER,ROW,COL MAX. CHANGE LAYER,ROW,COL
 ------------------------------------------------------------------------------------------------------------------------------------
   0.9334E-02 (  2,  1, 83)  0.7841E-04 (  2,  1, 46)  0.1126E-05 (  3,  1, 81)  0.1037E-07 (  3,  1, 46)


                                          ================================================
                                                         FROM TIME =   880.00     TO    890.00    

 
 SOLVING FOR HEAD 
 FLOW MODEL IS TRANSIENT
 FLOW MODEL CONTAINS CONSTANT-HEAD CELLS


 MAXIMUM STEPSIZE DURING WHICH ANY PARTICLE CANNOT MOVE MORE THAN ONE CELL
 =  3.811    (WHEN MIN. R.F.=1)  AT K=   4, I=   1, J=  74

 MAXIMUM STEPSIZE WHICH MEETS STABILITY CRITERION OF THE ADVECTION TERM
 (FOR PURE FINITE-DIFFERENCE OPTION, MIXELM=0) 
 =  3.060    (WHEN MIN. R.F.=1)  AT K=   2, I=   1, J=  74


 TOTAL NUMBER OF POINT SOURCES/SINKS PRESENT IN THE FLOW MODEL =    62

 MAXIMUM STEPSIZE WHICH MEETS STABILITY CRITERION OF THE SINK & SOURCE TERM
 =  76.59    (WHEN MIN. R.F.=1)  AT K=   2, I=   1, J= 120

 MAXIMUM STEPSIZE WHICH MEETS STABILITY CRITERION OF THE DISPERSION TERM
 =  20.29    (WHEN MIN. R.F.=1)  AT K=   1, I=   1, J=  31


     1 CALLS TO GCG PACKAGE FOR TRANSPORT TIME STEP   1 IN FLOW TIME STEP  89 STRESS PERIOD   1
     6 TOTAL ITERATIONS

 NO OUTPUT CONTROL FOR STRESS PERIOD    1   TIME STEP  89
 
 SOLVING FOR HEAD 
 FLOW MODEL IS TRANSIENT
 FLOW MODEL CONTAINS CONSTANT-HEAD CELLS


 MAXIMUM STEPSIZE DURING WHICH ANY PARTICLE CANNOT MOVE MORE THAN ONE CELL
 =  3.724    (WHEN MIN. R.F.=1)  AT K=   4, I=   1, J=  74

 MAXIMUM STEPSIZE WHICH MEETS STABILITY CRITERION OF THE ADVECTION TERM
 (FOR PURE FINITE-DIFFERENCE OPTION, MIXELM=0) 
 =  2.842    (WHEN MIN. R.F.=1)  AT K=   2, I=   1, J=  81


 TOTAL NUMBER OF POINT SOURCES/SINKS PRESENT IN THE FLOW MODEL =    62

 MAXIMUM STEPSIZE WHICH MEETS STABILITY CRITERION OF THE SINK & SOURCE TERM
 =  73.35    (WHEN MIN. R.F.=1)  AT K=   2, I=   1, J= 120

 MAXIMUM STEPSIZE WHICH MEETS STABILITY CRITERION OF THE DISPERSION TERM
 =  20.29    (WHEN MIN. R.F.=1)  AT K=   1, I=   1, J=  31
     1 CALLS TO GCG PACKAGE FOR TRANSPORT TIME STEP   2 IN FLOW TIME STEP  89 STRESS PERIOD   1
     6 TOTAL ITERATIONS
 
 SOLVING FOR HEAD 
 FLOW MODEL IS TRANSIENT
 FLOW MODEL CONTAINS CONSTANT-HEAD CELLS


 MAXIMUM STEPSIZE DURING WHICH ANY PARTICLE CANNOT MOVE MORE THAN ONE CELL
 =  3.683    (WHEN MIN. R.F.=1)  AT K=   4, I=   1, J=  74

 MAXIMUM STEPSIZE WHICH MEETS STABILITY CRITERION OF THE ADVECTION TERM
 (FOR PURE FINITE-DIFFERENCE OPTION, MIXELM=0) 
 =  2.781    (WHEN MIN. R.F.=1)  AT K=   2, I=   1, J=  81


 TOTAL NUMBER OF POINT SOURCES/SINKS PRESENT IN THE FLOW MODEL =    62

 MAXIMUM STEPSIZE WHICH MEETS STABILITY CRITERION OF THE SINK & SOURCE TERM
 =  72.71    (WHEN MIN. R.F.=1)  AT K=   2, I=   1, J= 120

 MAXIMUM STEPSIZE WHICH MEETS STABILITY CRITERION OF THE DISPERSION TERM
 =  20.29    (WHEN MIN. R.F.=1)  AT K=   1, I=   1, J=  31
     1 CALLS TO GCG PACKAGE FOR TRANSPORT TIME STEP   3 IN FLOW TIME STEP  89 STRESS PERIOD   1
     6 TOTAL ITERATIONS
 
 SOLVING FOR HEAD 
 FLOW MODEL IS TRANSIENT
 FLOW MODEL CONTAINS CONSTANT-HEAD CELLS


 MAXIMUM STEPSIZE DURING WHICH ANY PARTICLE CANNOT MOVE MORE THAN ONE CELL
 =  3.693    (WHEN MIN. R.F.=1)  AT K=   4, I=   1, J=  74

 MAXIMUM STEPSIZE WHICH MEETS STABILITY CRITERION OF THE ADVECTION TERM
 (FOR PURE FINITE-DIFFERENCE OPTION, MIXELM=0) 
 =  2.890    (WHEN MIN. R.F.=1)  AT K=   2, I=   1, J=  81


 TOTAL NUMBER OF POINT SOURCES/SINKS PRESENT IN THE FLOW MODEL =    62

 MAXIMUM STEPSIZE WHICH MEETS STABILITY CRITERION OF THE SINK & SOURCE TERM
 =  73.00    (WHEN MIN. R.F.=1)  AT K=   2, I=   1, J= 120

 MAXIMUM STEPSIZE WHICH MEETS STABILITY CRITERION OF THE DISPERSION TERM
 =  20.29    (WHEN MIN. R.F.=1)  AT K=   1, I=   1, J=  31
     1 CALLS TO GCG PACKAGE FOR TRANSPORT TIME STEP   4 IN FLOW TIME STEP  89 STRESS PERIOD   1
     6 TOTAL ITERATIONS
 
 SOLVING FOR HEAD 
 FLOW MODEL IS TRANSIENT
 FLOW MODEL CONTAINS CONSTANT-HEAD CELLS


 MAXIMUM STEPSIZE DURING WHICH ANY PARTICLE CANNOT MOVE MORE THAN ONE CELL
 =  3.743    (WHEN MIN. R.F.=1)  AT K=   4, I=   1, J=  74

 MAXIMUM STEPSIZE WHICH MEETS STABILITY CRITERION OF THE ADVECTION TERM
 (FOR PURE FINITE-DIFFERENCE OPTION, MIXELM=0) 
 =  2.988    (WHEN MIN. R.F.=1)  AT K=   2, I=   1, J=  80


 TOTAL NUMBER OF POINT SOURCES/SINKS PRESENT IN THE FLOW MODEL =    62

 MAXIMUM STEPSIZE WHICH MEETS STABILITY CRITERION OF THE SINK & SOURCE TERM
 =  71.94    (WHEN MIN. R.F.=1)  AT K=   2, I=   1, J= 120

 MAXIMUM STEPSIZE WHICH MEETS STABILITY CRITERION OF THE DISPERSION TERM
 =  20.29    (WHEN MIN. R.F.=1)  AT K=   1, I=   1, J=  31
     1 CALLS TO GCG PACKAGE FOR TRANSPORT TIME STEP   5 IN FLOW TIME STEP  89 STRESS PERIOD   1
     5 TOTAL ITERATIONS
  MAXIMUM CONCENTRATION CHANGES FOR EACH ITERATION:
  MAX. CHANGE LAYER,ROW,COL MAX. CHANGE LAYER,ROW,COL MAX. CHANGE LAYER,ROW,COL MAX. CHANGE LAYER,ROW,COL MAX. CHANGE LAYER,ROW,COL
 ------------------------------------------------------------------------------------------------------------------------------------
   0.2003E-01 (  2,  1, 82)  0.3891E-03 (  2,  1, 80)  0.1147E-04 (  3,  1, 80)  0.2754E-06 (  4,  1, 80)  0.6395E-08 (  4,  1, 81)


                                          ================================================
                                                         FROM TIME =   890.00     TO    900.00    

 
 SOLVING FOR HEAD 
 FLOW MODEL IS TRANSIENT
 FLOW MODEL CONTAINS CONSTANT-HEAD CELLS


 MAXIMUM STEPSIZE DURING WHICH ANY PARTICLE CANNOT MOVE MORE THAN ONE CELL
 =  3.788    (WHEN MIN. R.F.=1)  AT K=   4, I=   1, J=  74

 MAXIMUM STEPSIZE WHICH MEETS STABILITY CRITERION OF THE ADVECTION TERM
 (FOR PURE FINITE-DIFFERENCE OPTION, MIXELM=0) 
 =  2.847    (WHEN MIN. R.F.=1)  AT K=   2, I=   1, J=  80


 TOTAL NUMBER OF POINT SOURCES/SINKS PRESENT IN THE FLOW MODEL =    62

 MAXIMUM STEPSIZE WHICH MEETS STABILITY CRITERION OF THE SINK & SOURCE TERM
 =  74.05    (WHEN MIN. R.F.=1)  AT K=   2, I=   1, J= 120

 MAXIMUM STEPSIZE WHICH MEETS STABILITY CRITERION OF THE DISPERSION TERM
 =  20.29    (WHEN MIN. R.F.=1)  AT K=   1, I=   1, J=  31


     1 CALLS TO GCG PACKAGE FOR TRANSPORT TIME STEP   1 IN FLOW TIME STEP  90 STRESS PERIOD   1
     6 TOTAL ITERATIONS

 NO OUTPUT CONTROL FOR STRESS PERIOD    1   TIME STEP  90
 
 SOLVING FOR HEAD 
 FLOW MODEL IS TRANSIENT
 FLOW MODEL CONTAINS CONSTANT-HEAD CELLS


 MAXIMUM STEPSIZE DURING WHICH ANY PARTICLE CANNOT MOVE MORE THAN ONE CELL
 =  3.907    (WHEN MIN. R.F.=1)  AT K=   4, I=   1, J=  74

 MAXIMUM STEPSIZE WHICH MEETS STABILITY CRITERION OF THE ADVECTION TERM
 (FOR PURE FINITE-DIFFERENCE OPTION, MIXELM=0) 
 =  2.689    (WHEN MIN. R.F.=1)  AT K=   2, I=   1, J=  80


 TOTAL NUMBER OF POINT SOURCES/SINKS PRESENT IN THE FLOW MODEL =    62

 MAXIMUM STEPSIZE WHICH MEETS STABILITY CRITERION OF THE SINK & SOURCE TERM
 =  71.71    (WHEN MIN. R.F.=1)  AT K=   2, I=   1, J= 120

 MAXIMUM STEPSIZE WHICH MEETS STABILITY CRITERION OF THE DISPERSION TERM
 =  20.29    (WHEN MIN. R.F.=1)  AT K=   1, I=   1, J=  31
     1 CALLS TO GCG PACKAGE FOR TRANSPORT TIME STEP   2 IN FLOW TIME STEP  90 STRESS PERIOD   1
     6 TOTAL ITERATIONS
 
 SOLVING FOR HEAD 
 FLOW MODEL IS TRANSIENT
 FLOW MODEL CONTAINS CONSTANT-HEAD CELLS


 MAXIMUM STEPSIZE DURING WHICH ANY PARTICLE CANNOT MOVE MORE THAN ONE CELL
 =  4.043    (WHEN MIN. R.F.=1)  AT K=   5, I=   1, J=  74

 MAXIMUM STEPSIZE WHICH MEETS STABILITY CRITERION OF THE ADVECTION TERM
 (FOR PURE FINITE-DIFFERENCE OPTION, MIXELM=0) 
 =  2.660    (WHEN MIN. R.F.=1)  AT K=   2, I=   1, J=  80


 TOTAL NUMBER OF POINT SOURCES/SINKS PRESENT IN THE FLOW MODEL =    62

 MAXIMUM STEPSIZE WHICH MEETS STABILITY CRITERION OF THE SINK & SOURCE TERM
 =  71.74    (WHEN MIN. R.F.=1)  AT K=   2, I=   1, J= 120

 MAXIMUM STEPSIZE WHICH MEETS STABILITY CRITERION OF THE DISPERSION TERM
 =  20.29    (WHEN MIN. R.F.=1)  AT K=   1, I=   1, J=  31
     1 CALLS TO GCG PACKAGE FOR TRANSPORT TIME STEP   3 IN FLOW TIME STEP  90 STRESS PERIOD   1
     5 TOTAL ITERATIONS
 
 SOLVING FOR HEAD 
 FLOW MODEL IS TRANSIENT
 FLOW MODEL CONTAINS CONSTANT-HEAD CELLS


 MAXIMUM STEPSIZE DURING WHICH ANY PARTICLE CANNOT MOVE MORE THAN ONE CELL
 =  4.164    (WHEN MIN. R.F.=1)  AT K=   5, I=   1, J=  74

 MAXIMUM STEPSIZE WHICH MEETS STABILITY CRITERION OF THE ADVECTION TERM
 (FOR PURE FINITE-DIFFERENCE OPTION, MIXELM=0) 
 =  2.753    (WHEN MIN. R.F.=1)  AT K=   2, I=   1, J=  80


 TOTAL NUMBER OF POINT SOURCES/SINKS PRESENT IN THE FLOW MODEL =    62

 MAXIMUM STEPSIZE WHICH MEETS STABILITY CRITERION OF THE SINK & SOURCE TERM
 =  71.79    (WHEN MIN. R.F.=1)  AT K=   2, I=   1, J= 120

 MAXIMUM STEPSIZE WHICH MEETS STABILITY CRITERION OF THE DISPERSION TERM
 =  20.29    (WHEN MIN. R.F.=1)  AT K=   1, I=   1, J=  31
     1 CALLS TO GCG PACKAGE FOR TRANSPORT TIME STEP   4 IN FLOW TIME STEP  90 STRESS PERIOD   1
     5 TOTAL ITERATIONS
 
 SOLVING FOR HEAD 
 FLOW MODEL IS TRANSIENT
 FLOW MODEL CONTAINS CONSTANT-HEAD CELLS


 MAXIMUM STEPSIZE DURING WHICH ANY PARTICLE CANNOT MOVE MORE THAN ONE CELL
 =  4.314    (WHEN MIN. R.F.=1)  AT K=   5, I=   1, J=  74

 MAXIMUM STEPSIZE WHICH MEETS STABILITY CRITERION OF THE ADVECTION TERM
 (FOR PURE FINITE-DIFFERENCE OPTION, MIXELM=0) 
 =  3.000    (WHEN MIN. R.F.=1)  AT K=   2, I=   1, J=  80


 TOTAL NUMBER OF POINT SOURCES/SINKS PRESENT IN THE FLOW MODEL =    62

 MAXIMUM STEPSIZE WHICH MEETS STABILITY CRITERION OF THE SINK & SOURCE TERM
 =  71.22    (WHEN MIN. R.F.=1)  AT K=   2, I=   1, J= 120

 MAXIMUM STEPSIZE WHICH MEETS STABILITY CRITERION OF THE DISPERSION TERM
 =  20.29    (WHEN MIN. R.F.=1)  AT K=   1, I=   1, J=  31
     1 CALLS TO GCG PACKAGE FOR TRANSPORT TIME STEP   5 IN FLOW TIME STEP  90 STRESS PERIOD   1
     5 TOTAL ITERATIONS
  MAXIMUM CONCENTRATION CHANGES FOR EACH ITERATION:
  MAX. CHANGE LAYER,ROW,COL MAX. CHANGE LAYER,ROW,COL MAX. CHANGE LAYER,ROW,COL MAX. CHANGE LAYER,ROW,COL MAX. CHANGE LAYER,ROW,COL
 ------------------------------------------------------------------------------------------------------------------------------------
   0.2789E-01 (  2,  1, 75)  0.8743E-03 (  2,  1, 79)  0.2900E-04 (  3,  1, 79)  0.1054E-05 (  3,  1, 76)  0.3137E-07 (  4,  1, 76)


                                          ================================================
                                                         FROM TIME =   900.00     TO    910.00    

 
 SOLVING FOR HEAD 
 FLOW MODEL IS TRANSIENT
 FLOW MODEL CONTAINS CONSTANT-HEAD CELLS


 MAXIMUM STEPSIZE DURING WHICH ANY PARTICLE CANNOT MOVE MORE THAN ONE CELL
 =  4.448    (WHEN MIN. R.F.=1)  AT K=   6, I=   1, J=  74

 MAXIMUM STEPSIZE WHICH MEETS STABILITY CRITERION OF THE ADVECTION TERM
 (FOR PURE FINITE-DIFFERENCE OPTION, MIXELM=0) 
 =  2.919    (WHEN MIN. R.F.=1)  AT K=   2, I=   1, J=  79


 TOTAL NUMBER OF POINT SOURCES/SINKS PRESENT IN THE FLOW MODEL =    62

 MAXIMUM STEPSIZE WHICH MEETS STABILITY CRITERION OF THE SINK & SOURCE TERM
 =  72.48    (WHEN MIN. R.F.=1)  AT K=   2, I=   1, J= 120

 MAXIMUM STEPSIZE WHICH MEETS STABILITY CRITERION OF THE DISPERSION TERM
 =  20.29    (WHEN MIN. R.F.=1)  AT K=   1, I=   1, J=  31


     1 CALLS TO GCG PACKAGE FOR TRANSPORT TIME STEP   1 IN FLOW TIME STEP  91 STRESS PERIOD   1
     6 TOTAL ITERATIONS

 NO OUTPUT CONTROL FOR STRESS PERIOD    1   TIME STEP  91
 
 SOLVING FOR HEAD 
 FLOW MODEL IS TRANSIENT
 FLOW MODEL CONTAINS CONSTANT-HEAD CELLS


 MAXIMUM STEPSIZE DURING WHICH ANY PARTICLE CANNOT MOVE MORE THAN ONE CELL
 =  4.353    (WHEN MIN. R.F.=1)  AT K=   4, I=   1, J=  48

 MAXIMUM STEPSIZE WHICH MEETS STABILITY CRITERION OF THE ADVECTION TERM
 (FOR PURE FINITE-DIFFERENCE OPTION, MIXELM=0) 
 =  2.744    (WHEN MIN. R.F.=1)  AT K=   2, I=   1, J=  79


 TOTAL NUMBER OF POINT SOURCES/SINKS PRESENT IN THE FLOW MODEL =    62

 MAXIMUM STEPSIZE WHICH MEETS STABILITY CRITERION OF THE SINK & SOURCE TERM
 =  70.97    (WHEN MIN. R.F.=1)  AT K=   2, I=   1, J= 120

 MAXIMUM STEPSIZE WHICH MEETS STABILITY CRITERION OF THE DISPERSION TERM
 =  20.29    (WHEN MIN. R.F.=1)  AT K=   1, I=   1, J=  31
     1 CALLS TO GCG PACKAGE FOR TRANSPORT TIME STEP   2 IN FLOW TIME STEP  91 STRESS PERIOD   1
     6 TOTAL ITERATIONS
 
 SOLVING FOR HEAD 
 FLOW MODEL IS TRANSIENT
 FLOW MODEL CONTAINS CONSTANT-HEAD CELLS


 MAXIMUM STEPSIZE DURING WHICH ANY PARTICLE CANNOT MOVE MORE THAN ONE CELL
 =  4.277    (WHEN MIN. R.F.=1)  AT K=   4, I=   1, J=  48

 MAXIMUM STEPSIZE WHICH MEETS STABILITY CRITERION OF THE ADVECTION TERM
 (FOR PURE FINITE-DIFFERENCE OPTION, MIXELM=0) 
 =  2.703    (WHEN MIN. R.F.=1)  AT K=   2, I=   1, J=  79


 TOTAL NUMBER OF POINT SOURCES/SINKS PRESENT IN THE FLOW MODEL =    62

 MAXIMUM STEPSIZE WHICH MEETS STABILITY CRITERION OF THE SINK & SOURCE TERM
 =  71.21    (WHEN MIN. R.F.=1)  AT K=   2, I=   1, J= 120

 MAXIMUM STEPSIZE WHICH MEETS STABILITY CRITERION OF THE DISPERSION TERM
 =  20.29    (WHEN MIN. R.F.=1)  AT K=   1, I=   1, J=  31
     1 CALLS TO GCG PACKAGE FOR TRANSPORT TIME STEP   3 IN FLOW TIME STEP  91 STRESS PERIOD   1
     5 TOTAL ITERATIONS
 
 SOLVING FOR HEAD 
 FLOW MODEL IS TRANSIENT
 FLOW MODEL CONTAINS CONSTANT-HEAD CELLS


 MAXIMUM STEPSIZE DURING WHICH ANY PARTICLE CANNOT MOVE MORE THAN ONE CELL
 =  4.272    (WHEN MIN. R.F.=1)  AT K=   4, I=   1, J=  48

 MAXIMUM STEPSIZE WHICH MEETS STABILITY CRITERION OF THE ADVECTION TERM
 (FOR PURE FINITE-DIFFERENCE OPTION, MIXELM=0) 
 =  2.759    (WHEN MIN. R.F.=1)  AT K=   2, I=   1, J=  79


 TOTAL NUMBER OF POINT SOURCES/SINKS PRESENT IN THE FLOW MODEL =    62

 MAXIMUM STEPSIZE WHICH MEETS STABILITY CRITERION OF THE SINK & SOURCE TERM
 =  71.93    (WHEN MIN. R.F.=1)  AT K=   2, I=   1, J= 120

 MAXIMUM STEPSIZE WHICH MEETS STABILITY CRITERION OF THE DISPERSION TERM
 =  20.29    (WHEN MIN. R.F.=1)  AT K=   1, I=   1, J=  31
     1 CALLS TO GCG PACKAGE FOR TRANSPORT TIME STEP   4 IN FLOW TIME STEP  91 STRESS PERIOD   1
     5 TOTAL ITERATIONS
 
 SOLVING FOR HEAD 
 FLOW MODEL IS TRANSIENT
 FLOW MODEL CONTAINS CONSTANT-HEAD CELLS


 MAXIMUM STEPSIZE DURING WHICH ANY PARTICLE CANNOT MOVE MORE THAN ONE CELL
 =  4.334    (WHEN MIN. R.F.=1)  AT K=   4, I=   1, J=  48

 MAXIMUM STEPSIZE WHICH MEETS STABILITY CRITERION OF THE ADVECTION TERM
 (FOR PURE FINITE-DIFFERENCE OPTION, MIXELM=0) 
 =  2.853    (WHEN MIN. R.F.=1)  AT K=   2, I=   1, J=  41


 TOTAL NUMBER OF POINT SOURCES/SINKS PRESENT IN THE FLOW MODEL =    62

 MAXIMUM STEPSIZE WHICH MEETS STABILITY CRITERION OF THE SINK & SOURCE TERM
 =  72.26    (WHEN MIN. R.F.=1)  AT K=   2, I=   1, J= 120

 MAXIMUM STEPSIZE WHICH MEETS STABILITY CRITERION OF THE DISPERSION TERM
 =  20.29    (WHEN MIN. R.F.=1)  AT K=   1, I=   1, J=  31
     1 CALLS TO GCG PACKAGE FOR TRANSPORT TIME STEP   5 IN FLOW TIME STEP  91 STRESS PERIOD   1
     5 TOTAL ITERATIONS
  MAXIMUM CONCENTRATION CHANGES FOR EACH ITERATION:
  MAX. CHANGE LAYER,ROW,COL MAX. CHANGE LAYER,ROW,COL MAX. CHANGE LAYER,ROW,COL MAX. CHANGE LAYER,ROW,COL MAX. CHANGE LAYER,ROW,COL
 ------------------------------------------------------------------------------------------------------------------------------------
   0.2679E-01 (  2,  1, 80)  0.5570E-03 (  2,  1, 78)  0.1839E-04 (  3,  1, 42)  0.7407E-06 (  3,  1, 76)  0.2077E-07 (  3,  1, 45)


                                          ================================================
                                                         FROM TIME =   910.00     TO    920.00    

 
 SOLVING FOR HEAD 
 FLOW MODEL IS TRANSIENT
 FLOW MODEL CONTAINS CONSTANT-HEAD CELLS


 MAXIMUM STEPSIZE DURING WHICH ANY PARTICLE CANNOT MOVE MORE THAN ONE CELL
 =  4.417    (WHEN MIN. R.F.=1)  AT K=   4, I=   1, J=  48

 MAXIMUM STEPSIZE WHICH MEETS STABILITY CRITERION OF THE ADVECTION TERM
 (FOR PURE FINITE-DIFFERENCE OPTION, MIXELM=0) 
 =  2.936    (WHEN MIN. R.F.=1)  AT K=   2, I=   1, J=  41


 TOTAL NUMBER OF POINT SOURCES/SINKS PRESENT IN THE FLOW MODEL =    62

 MAXIMUM STEPSIZE WHICH MEETS STABILITY CRITERION OF THE SINK & SOURCE TERM
 =  74.50    (WHEN MIN. R.F.=1)  AT K=   2, I=   1, J= 120

 MAXIMUM STEPSIZE WHICH MEETS STABILITY CRITERION OF THE DISPERSION TERM
 =  20.29    (WHEN MIN. R.F.=1)  AT K=   1, I=   1, J=  31


     1 CALLS TO GCG PACKAGE FOR TRANSPORT TIME STEP   1 IN FLOW TIME STEP  92 STRESS PERIOD   1
     6 TOTAL ITERATIONS

 NO OUTPUT CONTROL FOR STRESS PERIOD    1   TIME STEP  92
 
 SOLVING FOR HEAD 
 FLOW MODEL IS TRANSIENT
 FLOW MODEL CONTAINS CONSTANT-HEAD CELLS


 MAXIMUM STEPSIZE DURING WHICH ANY PARTICLE CANNOT MOVE MORE THAN ONE CELL
 =  4.582    (WHEN MIN. R.F.=1)  AT K=   4, I=   1, J=  59

 MAXIMUM STEPSIZE WHICH MEETS STABILITY CRITERION OF THE ADVECTION TERM
 (FOR PURE FINITE-DIFFERENCE OPTION, MIXELM=0) 
 =  2.887    (WHEN MIN. R.F.=1)  AT K=   2, I=   1, J=  78


 TOTAL NUMBER OF POINT SOURCES/SINKS PRESENT IN THE FLOW MODEL =    62

 MAXIMUM STEPSIZE WHICH MEETS STABILITY CRITERION OF THE SINK & SOURCE TERM
 =  73.73    (WHEN MIN. R.F.=1)  AT K=   2, I=   1, J= 120

 MAXIMUM STEPSIZE WHICH MEETS STABILITY CRITERION OF THE DISPERSION TERM
 =  20.29    (WHEN MIN. R.F.=1)  AT K=   1, I=   1, J=  31
     1 CALLS TO GCG PACKAGE FOR TRANSPORT TIME STEP   2 IN FLOW TIME STEP  92 STRESS PERIOD   1
     6 TOTAL ITERATIONS
 
 SOLVING FOR HEAD 
 FLOW MODEL IS TRANSIENT
 FLOW MODEL CONTAINS CONSTANT-HEAD CELLS


 MAXIMUM STEPSIZE DURING WHICH ANY PARTICLE CANNOT MOVE MORE THAN ONE CELL
 =  4.598    (WHEN MIN. R.F.=1)  AT K=   4, I=   1, J=  59

 MAXIMUM STEPSIZE WHICH MEETS STABILITY CRITERION OF THE ADVECTION TERM
 (FOR PURE FINITE-DIFFERENCE OPTION, MIXELM=0) 
 =  2.730    (WHEN MIN. R.F.=1)  AT K=   2, I=   1, J=  78


 TOTAL NUMBER OF POINT SOURCES/SINKS PRESENT IN THE FLOW MODEL =    62

 MAXIMUM STEPSIZE WHICH MEETS STABILITY CRITERION OF THE SINK & SOURCE TERM
 =  74.98    (WHEN MIN. R.F.=1)  AT K=   2, I=   1, J= 120

 MAXIMUM STEPSIZE WHICH MEETS STABILITY CRITERION OF THE DISPERSION TERM
 =  20.29    (WHEN MIN. R.F.=1)  AT K=   1, I=   1, J=  31
     1 CALLS TO GCG PACKAGE FOR TRANSPORT TIME STEP   3 IN FLOW TIME STEP  92 STRESS PERIOD   1
     6 TOTAL ITERATIONS
 
 SOLVING FOR HEAD 
 FLOW MODEL IS TRANSIENT
 FLOW MODEL CONTAINS CONSTANT-HEAD CELLS


 MAXIMUM STEPSIZE DURING WHICH ANY PARTICLE CANNOT MOVE MORE THAN ONE CELL
 =  4.615    (WHEN MIN. R.F.=1)  AT K=   4, I=   1, J=  59

 MAXIMUM STEPSIZE WHICH MEETS STABILITY CRITERION OF THE ADVECTION TERM
 (FOR PURE FINITE-DIFFERENCE OPTION, MIXELM=0) 
 =  2.694    (WHEN MIN. R.F.=1)  AT K=   2, I=   1, J=  78


 TOTAL NUMBER OF POINT SOURCES/SINKS PRESENT IN THE FLOW MODEL =    62

 MAXIMUM STEPSIZE WHICH MEETS STABILITY CRITERION OF THE SINK & SOURCE TERM
 =  76.00    (WHEN MIN. R.F.=1)  AT K=   2, I=   1, J= 120

 MAXIMUM STEPSIZE WHICH MEETS STABILITY CRITERION OF THE DISPERSION TERM
 =  20.29    (WHEN MIN. R.F.=1)  AT K=   1, I=   1, J=  31
     1 CALLS TO GCG PACKAGE FOR TRANSPORT TIME STEP   4 IN FLOW TIME STEP  92 STRESS PERIOD   1
     5 TOTAL ITERATIONS
 
 SOLVING FOR HEAD 
 FLOW MODEL IS TRANSIENT
 FLOW MODEL CONTAINS CONSTANT-HEAD CELLS


 MAXIMUM STEPSIZE DURING WHICH ANY PARTICLE CANNOT MOVE MORE THAN ONE CELL
 =  4.630    (WHEN MIN. R.F.=1)  AT K=   4, I=   1, J=  59

 MAXIMUM STEPSIZE WHICH MEETS STABILITY CRITERION OF THE ADVECTION TERM
 (FOR PURE FINITE-DIFFERENCE OPTION, MIXELM=0) 
 =  2.744    (WHEN MIN. R.F.=1)  AT K=   2, I=   1, J=  78


 TOTAL NUMBER OF POINT SOURCES/SINKS PRESENT IN THE FLOW MODEL =    62

 MAXIMUM STEPSIZE WHICH MEETS STABILITY CRITERION OF THE SINK & SOURCE TERM
 =  76.83    (WHEN MIN. R.F.=1)  AT K=   2, I=   1, J= 120

 MAXIMUM STEPSIZE WHICH MEETS STABILITY CRITERION OF THE DISPERSION TERM
 =  20.29    (WHEN MIN. R.F.=1)  AT K=   1, I=   1, J=  31
     1 CALLS TO GCG PACKAGE FOR TRANSPORT TIME STEP   5 IN FLOW TIME STEP  92 STRESS PERIOD   1
     5 TOTAL ITERATIONS
  MAXIMUM CONCENTRATION CHANGES FOR EACH ITERATION:
  MAX. CHANGE LAYER,ROW,COL MAX. CHANGE LAYER,ROW,COL MAX. CHANGE LAYER,ROW,COL MAX. CHANGE LAYER,ROW,COL MAX. CHANGE LAYER,ROW,COL
 ------------------------------------------------------------------------------------------------------------------------------------
   0.2633E-01 (  2,  1, 79)  0.5043E-03 (  2,  1, 49)  0.1675E-04 (  3,  1, 77)  0.4585E-06 (  4,  1, 74)  0.1422E-07 (  3,  1, 81)


                                          ================================================
                                                         FROM TIME =   920.00     TO    930.00    

 
 SOLVING FOR HEAD 
 FLOW MODEL IS TRANSIENT
 FLOW MODEL CONTAINS CONSTANT-HEAD CELLS


 MAXIMUM STEPSIZE DURING WHICH ANY PARTICLE CANNOT MOVE MORE THAN ONE CELL
 =  4.609    (WHEN MIN. R.F.=1)  AT K=   4, I=   1, J=  49

 MAXIMUM STEPSIZE WHICH MEETS STABILITY CRITERION OF THE ADVECTION TERM
 (FOR PURE FINITE-DIFFERENCE OPTION, MIXELM=0) 
 =  2.839    (WHEN MIN. R.F.=1)  AT K=   2, I=   1, J=  78


 TOTAL NUMBER OF POINT SOURCES/SINKS PRESENT IN THE FLOW MODEL =    62

 MAXIMUM STEPSIZE WHICH MEETS STABILITY CRITERION OF THE SINK & SOURCE TERM
 =  79.11    (WHEN MIN. R.F.=1)  AT K=   2, I=   1, J= 120

 MAXIMUM STEPSIZE WHICH MEETS STABILITY CRITERION OF THE DISPERSION TERM
 =  20.29    (WHEN MIN. R.F.=1)  AT K=   1, I=   1, J=  31


     1 CALLS TO GCG PACKAGE FOR TRANSPORT TIME STEP   1 IN FLOW TIME STEP  93 STRESS PERIOD   1
     5 TOTAL ITERATIONS

 NO OUTPUT CONTROL FOR STRESS PERIOD    1   TIME STEP  93
 
 SOLVING FOR HEAD 
 FLOW MODEL IS TRANSIENT
 FLOW MODEL CONTAINS CONSTANT-HEAD CELLS


 MAXIMUM STEPSIZE DURING WHICH ANY PARTICLE CANNOT MOVE MORE THAN ONE CELL
 =  4.559    (WHEN MIN. R.F.=1)  AT K=   4, I=   1, J=  49

 MAXIMUM STEPSIZE WHICH MEETS STABILITY CRITERION OF THE ADVECTION TERM
 (FOR PURE FINITE-DIFFERENCE OPTION, MIXELM=0) 
 =  3.107    (WHEN MIN. R.F.=1)  AT K=   2, I=   1, J=  42


 TOTAL NUMBER OF POINT SOURCES/SINKS PRESENT IN THE FLOW MODEL =    62

 MAXIMUM STEPSIZE WHICH MEETS STABILITY CRITERION OF THE SINK & SOURCE TERM
 =  78.26    (WHEN MIN. R.F.=1)  AT K=   2, I=   1, J= 120

 MAXIMUM STEPSIZE WHICH MEETS STABILITY CRITERION OF THE DISPERSION TERM
 =  20.29    (WHEN MIN. R.F.=1)  AT K=   1, I=   1, J=  31
     1 CALLS TO GCG PACKAGE FOR TRANSPORT TIME STEP   2 IN FLOW TIME STEP  93 STRESS PERIOD   1
     6 TOTAL ITERATIONS
 
 SOLVING FOR HEAD 
 FLOW MODEL IS TRANSIENT
 FLOW MODEL CONTAINS CONSTANT-HEAD CELLS


 MAXIMUM STEPSIZE DURING WHICH ANY PARTICLE CANNOT MOVE MORE THAN ONE CELL
 =  4.525    (WHEN MIN. R.F.=1)  AT K=   4, I=   1, J=  49

 MAXIMUM STEPSIZE WHICH MEETS STABILITY CRITERION OF THE ADVECTION TERM
 (FOR PURE FINITE-DIFFERENCE OPTION, MIXELM=0) 
 =  2.975    (WHEN MIN. R.F.=1)  AT K=   2, I=   1, J=  43


 TOTAL NUMBER OF POINT SOURCES/SINKS PRESENT IN THE FLOW MODEL =    62

 MAXIMUM STEPSIZE WHICH MEETS STABILITY CRITERION OF THE SINK & SOURCE TERM
 =  78.58    (WHEN MIN. R.F.=1)  AT K=   2, I=   1, J= 120

 MAXIMUM STEPSIZE WHICH MEETS STABILITY CRITERION OF THE DISPERSION TERM
 =  20.29    (WHEN MIN. R.F.=1)  AT K=   1, I=   1, J=  31
     1 CALLS TO GCG PACKAGE FOR TRANSPORT TIME STEP   3 IN FLOW TIME STEP  93 STRESS PERIOD   1
     6 TOTAL ITERATIONS
 
 SOLVING FOR HEAD 
 FLOW MODEL IS TRANSIENT
 FLOW MODEL CONTAINS CONSTANT-HEAD CELLS


 MAXIMUM STEPSIZE DURING WHICH ANY PARTICLE CANNOT MOVE MORE THAN ONE CELL
 =  4.514    (WHEN MIN. R.F.=1)  AT K=   4, I=   1, J=  49

 MAXIMUM STEPSIZE WHICH MEETS STABILITY CRITERION OF THE ADVECTION TERM
 (FOR PURE FINITE-DIFFERENCE OPTION, MIXELM=0) 
 =  2.827    (WHEN MIN. R.F.=1)  AT K=   2, I=   1, J=  77


 TOTAL NUMBER OF POINT SOURCES/SINKS PRESENT IN THE FLOW MODEL =    62

 MAXIMUM STEPSIZE WHICH MEETS STABILITY CRITERION OF THE SINK & SOURCE TERM
 =  78.74    (WHEN MIN. R.F.=1)  AT K=   2, I=   1, J= 120

 MAXIMUM STEPSIZE WHICH MEETS STABILITY CRITERION OF THE DISPERSION TERM
 =  20.29    (WHEN MIN. R.F.=1)  AT K=   1, I=   1, J=  31
     1 CALLS TO GCG PACKAGE FOR TRANSPORT TIME STEP   4 IN FLOW TIME STEP  93 STRESS PERIOD   1
     6 TOTAL ITERATIONS
 
 SOLVING FOR HEAD 
 FLOW MODEL IS TRANSIENT
 FLOW MODEL CONTAINS CONSTANT-HEAD CELLS


 MAXIMUM STEPSIZE DURING WHICH ANY PARTICLE CANNOT MOVE MORE THAN ONE CELL
 =  4.530    (WHEN MIN. R.F.=1)  AT K=   4, I=   1, J=  49

 MAXIMUM STEPSIZE WHICH MEETS STABILITY CRITERION OF THE ADVECTION TERM
 (FOR PURE FINITE-DIFFERENCE OPTION, MIXELM=0) 
 =  2.786    (WHEN MIN. R.F.=1)  AT K=   2, I=   1, J=  77


 TOTAL NUMBER OF POINT SOURCES/SINKS PRESENT IN THE FLOW MODEL =    62

 MAXIMUM STEPSIZE WHICH MEETS STABILITY CRITERION OF THE SINK & SOURCE TERM
 =  78.91    (WHEN MIN. R.F.=1)  AT K=   2, I=   1, J= 120

 MAXIMUM STEPSIZE WHICH MEETS STABILITY CRITERION OF THE DISPERSION TERM
 =  20.29    (WHEN MIN. R.F.=1)  AT K=   1, I=   1, J=  31
     1 CALLS TO GCG PACKAGE FOR TRANSPORT TIME STEP   5 IN FLOW TIME STEP  93 STRESS PERIOD   1
     5 TOTAL ITERATIONS
  MAXIMUM CONCENTRATION CHANGES FOR EACH ITERATION:
  MAX. CHANGE LAYER,ROW,COL MAX. CHANGE LAYER,ROW,COL MAX. CHANGE LAYER,ROW,COL MAX. CHANGE LAYER,ROW,COL MAX. CHANGE LAYER,ROW,COL
 ------------------------------------------------------------------------------------------------------------------------------------
   0.2137E-01 (  2,  1, 78)  0.4239E-03 (  2,  1, 75)  0.1210E-04 (  3,  1, 75)  0.2879E-06 (  3,  1, 79)  0.8633E-08 (  3,  1, 80)


                                          ================================================
                                                         FROM TIME =   930.00     TO    940.00    

 
 SOLVING FOR HEAD 
 FLOW MODEL IS TRANSIENT
 FLOW MODEL CONTAINS CONSTANT-HEAD CELLS


 MAXIMUM STEPSIZE DURING WHICH ANY PARTICLE CANNOT MOVE MORE THAN ONE CELL
 =  4.557    (WHEN MIN. R.F.=1)  AT K=   4, I=   1, J=  49

 MAXIMUM STEPSIZE WHICH MEETS STABILITY CRITERION OF THE ADVECTION TERM
 (FOR PURE FINITE-DIFFERENCE OPTION, MIXELM=0) 
 =  2.814    (WHEN MIN. R.F.=1)  AT K=   2, I=   1, J=  77


 TOTAL NUMBER OF POINT SOURCES/SINKS PRESENT IN THE FLOW MODEL =    62

 MAXIMUM STEPSIZE WHICH MEETS STABILITY CRITERION OF THE SINK & SOURCE TERM
 =  83.21    (WHEN MIN. R.F.=1)  AT K=   2, I=   1, J= 120

 MAXIMUM STEPSIZE WHICH MEETS STABILITY CRITERION OF THE DISPERSION TERM
 =  20.29    (WHEN MIN. R.F.=1)  AT K=   1, I=   1, J=  31


     1 CALLS TO GCG PACKAGE FOR TRANSPORT TIME STEP   1 IN FLOW TIME STEP  94 STRESS PERIOD   1
     5 TOTAL ITERATIONS

 NO OUTPUT CONTROL FOR STRESS PERIOD    1   TIME STEP  94
 
 SOLVING FOR HEAD 
 FLOW MODEL IS TRANSIENT
 FLOW MODEL CONTAINS CONSTANT-HEAD CELLS


 MAXIMUM STEPSIZE DURING WHICH ANY PARTICLE CANNOT MOVE MORE THAN ONE CELL
 =  4.618    (WHEN MIN. R.F.=1)  AT K=   4, I=   1, J=  49

 MAXIMUM STEPSIZE WHICH MEETS STABILITY CRITERION OF THE ADVECTION TERM
 (FOR PURE FINITE-DIFFERENCE OPTION, MIXELM=0) 
 =  2.915    (WHEN MIN. R.F.=1)  AT K=   2, I=   1, J=  77


 TOTAL NUMBER OF POINT SOURCES/SINKS PRESENT IN THE FLOW MODEL =    62

 MAXIMUM STEPSIZE WHICH MEETS STABILITY CRITERION OF THE SINK & SOURCE TERM
 =  81.87    (WHEN MIN. R.F.=1)  AT K=   2, I=   1, J= 120

 MAXIMUM STEPSIZE WHICH MEETS STABILITY CRITERION OF THE DISPERSION TERM
 =  20.29    (WHEN MIN. R.F.=1)  AT K=   1, I=   1, J=  31
     1 CALLS TO GCG PACKAGE FOR TRANSPORT TIME STEP   2 IN FLOW TIME STEP  94 STRESS PERIOD   1
     6 TOTAL ITERATIONS
 
 SOLVING FOR HEAD 
 FLOW MODEL IS TRANSIENT
 FLOW MODEL CONTAINS CONSTANT-HEAD CELLS


 MAXIMUM STEPSIZE DURING WHICH ANY PARTICLE CANNOT MOVE MORE THAN ONE CELL
 =  4.706    (WHEN MIN. R.F.=1)  AT K=   4, I=   1, J=  49

 MAXIMUM STEPSIZE WHICH MEETS STABILITY CRITERION OF THE ADVECTION TERM
 (FOR PURE FINITE-DIFFERENCE OPTION, MIXELM=0) 
 =  3.097    (WHEN MIN. R.F.=1)  AT K=   2, I=   1, J=  44


 TOTAL NUMBER OF POINT SOURCES/SINKS PRESENT IN THE FLOW MODEL =    62

 MAXIMUM STEPSIZE WHICH MEETS STABILITY CRITERION OF THE SINK & SOURCE TERM
 =  81.51    (WHEN MIN. R.F.=1)  AT K=   2, I=   1, J= 120

 MAXIMUM STEPSIZE WHICH MEETS STABILITY CRITERION OF THE DISPERSION TERM
 =  20.29    (WHEN MIN. R.F.=1)  AT K=   1, I=   1, J=  31
     1 CALLS TO GCG PACKAGE FOR TRANSPORT TIME STEP   3 IN FLOW TIME STEP  94 STRESS PERIOD   1
     6 TOTAL ITERATIONS
 
 SOLVING FOR HEAD 
 FLOW MODEL IS TRANSIENT
 FLOW MODEL CONTAINS CONSTANT-HEAD CELLS


 MAXIMUM STEPSIZE DURING WHICH ANY PARTICLE CANNOT MOVE MORE THAN ONE CELL
 =  4.821    (WHEN MIN. R.F.=1)  AT K=   4, I=   1, J=  49

 MAXIMUM STEPSIZE WHICH MEETS STABILITY CRITERION OF THE ADVECTION TERM
 (FOR PURE FINITE-DIFFERENCE OPTION, MIXELM=0) 
 =  2.913    (WHEN MIN. R.F.=1)  AT K=   2, I=   1, J=  44


 TOTAL NUMBER OF POINT SOURCES/SINKS PRESENT IN THE FLOW MODEL =    62

 MAXIMUM STEPSIZE WHICH MEETS STABILITY CRITERION OF THE SINK & SOURCE TERM
 =  81.23    (WHEN MIN. R.F.=1)  AT K=   2, I=   1, J= 120

 MAXIMUM STEPSIZE WHICH MEETS STABILITY CRITERION OF THE DISPERSION TERM
 =  20.29    (WHEN MIN. R.F.=1)  AT K=   1, I=   1, J=  31
     1 CALLS TO GCG PACKAGE FOR TRANSPORT TIME STEP   4 IN FLOW TIME STEP  94 STRESS PERIOD   1
     6 TOTAL ITERATIONS
 
 SOLVING FOR HEAD 
 FLOW MODEL IS TRANSIENT
 FLOW MODEL CONTAINS CONSTANT-HEAD CELLS


 MAXIMUM STEPSIZE DURING WHICH ANY PARTICLE CANNOT MOVE MORE THAN ONE CELL
 =  4.969    (WHEN MIN. R.F.=1)  AT K=   4, I=   1, J=  49

 MAXIMUM STEPSIZE WHICH MEETS STABILITY CRITERION OF THE ADVECTION TERM
 (FOR PURE FINITE-DIFFERENCE OPTION, MIXELM=0) 
 =  2.858    (WHEN MIN. R.F.=1)  AT K=   2, I=   1, J=  44


 TOTAL NUMBER OF POINT SOURCES/SINKS PRESENT IN THE FLOW MODEL =    62

 MAXIMUM STEPSIZE WHICH MEETS STABILITY CRITERION OF THE SINK & SOURCE TERM
 =  80.11    (WHEN MIN. R.F.=1)  AT K=   2, I=   1, J= 120

 MAXIMUM STEPSIZE WHICH MEETS STABILITY CRITERION OF THE DISPERSION TERM
 =  20.29    (WHEN MIN. R.F.=1)  AT K=   1, I=   1, J=  31
     1 CALLS TO GCG PACKAGE FOR TRANSPORT TIME STEP   5 IN FLOW TIME STEP  94 STRESS PERIOD   1
     5 TOTAL ITERATIONS
  MAXIMUM CONCENTRATION CHANGES FOR EACH ITERATION:
  MAX. CHANGE LAYER,ROW,COL MAX. CHANGE LAYER,ROW,COL MAX. CHANGE LAYER,ROW,COL MAX. CHANGE LAYER,ROW,COL MAX. CHANGE LAYER,ROW,COL
 ------------------------------------------------------------------------------------------------------------------------------------
   0.1801E-01 (  2,  1, 85)  0.5817E-03 (  2,  1, 76)  0.1382E-04 (  3,  1, 76)  0.3520E-06 (  3,  1, 77)  0.1127E-07 (  4,  1, 75)


                                          ================================================
                                                         FROM TIME =   940.00     TO    950.00    

 
 SOLVING FOR HEAD 
 FLOW MODEL IS TRANSIENT
 FLOW MODEL CONTAINS CONSTANT-HEAD CELLS


 MAXIMUM STEPSIZE DURING WHICH ANY PARTICLE CANNOT MOVE MORE THAN ONE CELL
 =  5.066    (WHEN MIN. R.F.=1)  AT K=   4, I=   1, J=  49

 MAXIMUM STEPSIZE WHICH MEETS STABILITY CRITERION OF THE ADVECTION TERM
 (FOR PURE FINITE-DIFFERENCE OPTION, MIXELM=0) 
 =  2.881    (WHEN MIN. R.F.=1)  AT K=   2, I=   1, J=  44


 TOTAL NUMBER OF POINT SOURCES/SINKS PRESENT IN THE FLOW MODEL =    62

 MAXIMUM STEPSIZE WHICH MEETS STABILITY CRITERION OF THE SINK & SOURCE TERM
 =  82.95    (WHEN MIN. R.F.=1)  AT K=   2, I=   1, J= 120

 MAXIMUM STEPSIZE WHICH MEETS STABILITY CRITERION OF THE DISPERSION TERM
 =  20.29    (WHEN MIN. R.F.=1)  AT K=   1, I=   1, J=  31


     1 CALLS TO GCG PACKAGE FOR TRANSPORT TIME STEP   1 IN FLOW TIME STEP  95 STRESS PERIOD   1
     6 TOTAL ITERATIONS

 NO OUTPUT CONTROL FOR STRESS PERIOD    1   TIME STEP  95
 
 SOLVING FOR HEAD 
 FLOW MODEL IS TRANSIENT
 FLOW MODEL CONTAINS CONSTANT-HEAD CELLS


 MAXIMUM STEPSIZE DURING WHICH ANY PARTICLE CANNOT MOVE MORE THAN ONE CELL
 =  5.199    (WHEN MIN. R.F.=1)  AT K=   4, I=   1, J=  59

 MAXIMUM STEPSIZE WHICH MEETS STABILITY CRITERION OF THE ADVECTION TERM
 (FOR PURE FINITE-DIFFERENCE OPTION, MIXELM=0) 
 =  2.977    (WHEN MIN. R.F.=1)  AT K=   2, I=   1, J=  44


 TOTAL NUMBER OF POINT SOURCES/SINKS PRESENT IN THE FLOW MODEL =    62

 MAXIMUM STEPSIZE WHICH MEETS STABILITY CRITERION OF THE SINK & SOURCE TERM
 =  81.97    (WHEN MIN. R.F.=1)  AT K=   2, I=   1, J= 120

 MAXIMUM STEPSIZE WHICH MEETS STABILITY CRITERION OF THE DISPERSION TERM
 =  20.29    (WHEN MIN. R.F.=1)  AT K=   1, I=   1, J=  31
     1 CALLS TO GCG PACKAGE FOR TRANSPORT TIME STEP   2 IN FLOW TIME STEP  95 STRESS PERIOD   1
     6 TOTAL ITERATIONS
 
 SOLVING FOR HEAD 
 FLOW MODEL IS TRANSIENT
 FLOW MODEL CONTAINS CONSTANT-HEAD CELLS


 MAXIMUM STEPSIZE DURING WHICH ANY PARTICLE CANNOT MOVE MORE THAN ONE CELL
 =  5.316    (WHEN MIN. R.F.=1)  AT K=   4, I=   1, J=  59

 MAXIMUM STEPSIZE WHICH MEETS STABILITY CRITERION OF THE ADVECTION TERM
 (FOR PURE FINITE-DIFFERENCE OPTION, MIXELM=0) 
 =  3.116    (WHEN MIN. R.F.=1)  AT K=   2, I=   1, J=  76


 TOTAL NUMBER OF POINT SOURCES/SINKS PRESENT IN THE FLOW MODEL =    62

 MAXIMUM STEPSIZE WHICH MEETS STABILITY CRITERION OF THE SINK & SOURCE TERM
 =  81.64    (WHEN MIN. R.F.=1)  AT K=   2, I=   1, J= 120

 MAXIMUM STEPSIZE WHICH MEETS STABILITY CRITERION OF THE DISPERSION TERM
 =  20.29    (WHEN MIN. R.F.=1)  AT K=   1, I=   1, J=  31
     1 CALLS TO GCG PACKAGE FOR TRANSPORT TIME STEP   3 IN FLOW TIME STEP  95 STRESS PERIOD   1
     6 TOTAL ITERATIONS
 
 SOLVING FOR HEAD 
 FLOW MODEL IS TRANSIENT
 FLOW MODEL CONTAINS CONSTANT-HEAD CELLS


 MAXIMUM STEPSIZE DURING WHICH ANY PARTICLE CANNOT MOVE MORE THAN ONE CELL
 =  5.367    (WHEN MIN. R.F.=1)  AT K=   3, I=   1, J=  45

 MAXIMUM STEPSIZE WHICH MEETS STABILITY CRITERION OF THE ADVECTION TERM
 (FOR PURE FINITE-DIFFERENCE OPTION, MIXELM=0) 
 =  3.131    (WHEN MIN. R.F.=1)  AT K=   2, I=   1, J=  45


 TOTAL NUMBER OF POINT SOURCES/SINKS PRESENT IN THE FLOW MODEL =    62

 MAXIMUM STEPSIZE WHICH MEETS STABILITY CRITERION OF THE SINK & SOURCE TERM
 =  80.44    (WHEN MIN. R.F.=1)  AT K=   2, I=   1, J= 120

 MAXIMUM STEPSIZE WHICH MEETS STABILITY CRITERION OF THE DISPERSION TERM
 =  20.29    (WHEN MIN. R.F.=1)  AT K=   1, I=   1, J=  31
     1 CALLS TO GCG PACKAGE FOR TRANSPORT TIME STEP   4 IN FLOW TIME STEP  95 STRESS PERIOD   1
     6 TOTAL ITERATIONS
 
 SOLVING FOR HEAD 
 FLOW MODEL IS TRANSIENT
 FLOW MODEL CONTAINS CONSTANT-HEAD CELLS


 MAXIMUM STEPSIZE DURING WHICH ANY PARTICLE CANNOT MOVE MORE THAN ONE CELL
 =  5.193    (WHEN MIN. R.F.=1)  AT K=   3, I=   1, J=  45

 MAXIMUM STEPSIZE WHICH MEETS STABILITY CRITERION OF THE ADVECTION TERM
 (FOR PURE FINITE-DIFFERENCE OPTION, MIXELM=0) 
 =  2.978    (WHEN MIN. R.F.=1)  AT K=   2, I=   1, J=  45


 TOTAL NUMBER OF POINT SOURCES/SINKS PRESENT IN THE FLOW MODEL =    62

 MAXIMUM STEPSIZE WHICH MEETS STABILITY CRITERION OF THE SINK & SOURCE TERM
 =  78.07    (WHEN MIN. R.F.=1)  AT K=   2, I=   1, J= 120

 MAXIMUM STEPSIZE WHICH MEETS STABILITY CRITERION OF THE DISPERSION TERM
 =  20.29    (WHEN MIN. R.F.=1)  AT K=   1, I=   1, J=  31
     1 CALLS TO GCG PACKAGE FOR TRANSPORT TIME STEP   5 IN FLOW TIME STEP  95 STRESS PERIOD   1
     5 TOTAL ITERATIONS
  MAXIMUM CONCENTRATION CHANGES FOR EACH ITERATION:
  MAX. CHANGE LAYER,ROW,COL MAX. CHANGE LAYER,ROW,COL MAX. CHANGE LAYER,ROW,COL MAX. CHANGE LAYER,ROW,COL MAX. CHANGE LAYER,ROW,COL
 ------------------------------------------------------------------------------------------------------------------------------------
   0.1808E-01 (  2,  1, 77)  0.2836E-03 (  2,  1, 84)  0.5783E-05 (  2,  1, 85)  0.1549E-06 (  3,  1, 61)  0.3867E-08 (  4,  1, 74)


                                          ================================================
                                                         FROM TIME =   950.00     TO    960.00    

 
 SOLVING FOR HEAD 
 FLOW MODEL IS TRANSIENT
 FLOW MODEL CONTAINS CONSTANT-HEAD CELLS


 MAXIMUM STEPSIZE DURING WHICH ANY PARTICLE CANNOT MOVE MORE THAN ONE CELL
 =  5.230    (WHEN MIN. R.F.=1)  AT K=   3, I=   1, J=  45

 MAXIMUM STEPSIZE WHICH MEETS STABILITY CRITERION OF THE ADVECTION TERM
 (FOR PURE FINITE-DIFFERENCE OPTION, MIXELM=0) 
 =  2.962    (WHEN MIN. R.F.=1)  AT K=   2, I=   1, J=  45


 TOTAL NUMBER OF POINT SOURCES/SINKS PRESENT IN THE FLOW MODEL =    62

 MAXIMUM STEPSIZE WHICH MEETS STABILITY CRITERION OF THE SINK & SOURCE TERM
 =  79.72    (WHEN MIN. R.F.=1)  AT K=   2, I=   1, J= 120

 MAXIMUM STEPSIZE WHICH MEETS STABILITY CRITERION OF THE DISPERSION TERM
 =  20.29    (WHEN MIN. R.F.=1)  AT K=   1, I=   1, J=  31


     1 CALLS TO GCG PACKAGE FOR TRANSPORT TIME STEP   1 IN FLOW TIME STEP  96 STRESS PERIOD   1
     6 TOTAL ITERATIONS

 NO OUTPUT CONTROL FOR STRESS PERIOD    1   TIME STEP  96
 
 SOLVING FOR HEAD 
 FLOW MODEL IS TRANSIENT
 FLOW MODEL CONTAINS CONSTANT-HEAD CELLS


 MAXIMUM STEPSIZE DURING WHICH ANY PARTICLE CANNOT MOVE MORE THAN ONE CELL
 =  5.341    (WHEN MIN. R.F.=1)  AT K=   4, I=   1, J=  45

 MAXIMUM STEPSIZE WHICH MEETS STABILITY CRITERION OF THE ADVECTION TERM
 (FOR PURE FINITE-DIFFERENCE OPTION, MIXELM=0) 
 =  2.997    (WHEN MIN. R.F.=1)  AT K=   2, I=   1, J=  45


 TOTAL NUMBER OF POINT SOURCES/SINKS PRESENT IN THE FLOW MODEL =    62

 MAXIMUM STEPSIZE WHICH MEETS STABILITY CRITERION OF THE SINK & SOURCE TERM
 =  77.36    (WHEN MIN. R.F.=1)  AT K=   2, I=   1, J= 120

 MAXIMUM STEPSIZE WHICH MEETS STABILITY CRITERION OF THE DISPERSION TERM
 =  20.29    (WHEN MIN. R.F.=1)  AT K=   1, I=   1, J=  31
     1 CALLS TO GCG PACKAGE FOR TRANSPORT TIME STEP   2 IN FLOW TIME STEP  96 STRESS PERIOD   1
     6 TOTAL ITERATIONS
 
 SOLVING FOR HEAD 
 FLOW MODEL IS TRANSIENT
 FLOW MODEL CONTAINS CONSTANT-HEAD CELLS


 MAXIMUM STEPSIZE DURING WHICH ANY PARTICLE CANNOT MOVE MORE THAN ONE CELL
 =  5.529    (WHEN MIN. R.F.=1)  AT K=   4, I=   1, J=  45

 MAXIMUM STEPSIZE WHICH MEETS STABILITY CRITERION OF THE ADVECTION TERM
 (FOR PURE FINITE-DIFFERENCE OPTION, MIXELM=0) 
 =  3.117    (WHEN MIN. R.F.=1)  AT K=   2, I=   1, J=  45


 TOTAL NUMBER OF POINT SOURCES/SINKS PRESENT IN THE FLOW MODEL =    62

 MAXIMUM STEPSIZE WHICH MEETS STABILITY CRITERION OF THE SINK & SOURCE TERM
 =  76.01    (WHEN MIN. R.F.=1)  AT K=   2, I=   1, J= 120

 MAXIMUM STEPSIZE WHICH MEETS STABILITY CRITERION OF THE DISPERSION TERM
 =  20.29    (WHEN MIN. R.F.=1)  AT K=   1, I=   1, J=  31
     1 CALLS TO GCG PACKAGE FOR TRANSPORT TIME STEP   3 IN FLOW TIME STEP  96 STRESS PERIOD   1
     6 TOTAL ITERATIONS
 
 SOLVING FOR HEAD 
 FLOW MODEL IS TRANSIENT
 FLOW MODEL CONTAINS CONSTANT-HEAD CELLS


 MAXIMUM STEPSIZE DURING WHICH ANY PARTICLE CANNOT MOVE MORE THAN ONE CELL
 =  5.695    (WHEN MIN. R.F.=1)  AT K=   4, I=   1, J=  73

 MAXIMUM STEPSIZE WHICH MEETS STABILITY CRITERION OF THE ADVECTION TERM
 (FOR PURE FINITE-DIFFERENCE OPTION, MIXELM=0) 
 =  3.217    (WHEN MIN. R.F.=1)  AT K=   2, I=   1, J=  82


 TOTAL NUMBER OF POINT SOURCES/SINKS PRESENT IN THE FLOW MODEL =    62

 MAXIMUM STEPSIZE WHICH MEETS STABILITY CRITERION OF THE SINK & SOURCE TERM
 =  76.17    (WHEN MIN. R.F.=1)  AT K=   2, I=   1, J= 120

 MAXIMUM STEPSIZE WHICH MEETS STABILITY CRITERION OF THE DISPERSION TERM
 =  20.29    (WHEN MIN. R.F.=1)  AT K=   1, I=   1, J=  31
     1 CALLS TO GCG PACKAGE FOR TRANSPORT TIME STEP   4 IN FLOW TIME STEP  96 STRESS PERIOD   1
     6 TOTAL ITERATIONS
 
 SOLVING FOR HEAD 
 FLOW MODEL IS TRANSIENT
 FLOW MODEL CONTAINS CONSTANT-HEAD CELLS


 MAXIMUM STEPSIZE DURING WHICH ANY PARTICLE CANNOT MOVE MORE THAN ONE CELL
 =  5.495    (WHEN MIN. R.F.=1)  AT K=   3, I=   1, J=  74

 MAXIMUM STEPSIZE WHICH MEETS STABILITY CRITERION OF THE ADVECTION TERM
 (FOR PURE FINITE-DIFFERENCE OPTION, MIXELM=0) 
 =  3.152    (WHEN MIN. R.F.=1)  AT K=   2, I=   1, J=  82


 TOTAL NUMBER OF POINT SOURCES/SINKS PRESENT IN THE FLOW MODEL =    62

 MAXIMUM STEPSIZE WHICH MEETS STABILITY CRITERION OF THE SINK & SOURCE TERM
 =  74.25    (WHEN MIN. R.F.=1)  AT K=   2, I=   1, J= 120

 MAXIMUM STEPSIZE WHICH MEETS STABILITY CRITERION OF THE DISPERSION TERM
 =  20.29    (WHEN MIN. R.F.=1)  AT K=   1, I=   1, J=  31
     1 CALLS TO GCG PACKAGE FOR TRANSPORT TIME STEP   5 IN FLOW TIME STEP  96 STRESS PERIOD   1
     5 TOTAL ITERATIONS
  MAXIMUM CONCENTRATION CHANGES FOR EACH ITERATION:
  MAX. CHANGE LAYER,ROW,COL MAX. CHANGE LAYER,ROW,COL MAX. CHANGE LAYER,ROW,COL MAX. CHANGE LAYER,ROW,COL MAX. CHANGE LAYER,ROW,COL
 ------------------------------------------------------------------------------------------------------------------------------------
   0.1694E-01 (  2,  1, 83)  0.2542E-03 (  2,  1, 83)  0.5343E-05 (  2,  1, 84)  0.1211E-06 (  3,  1, 84)  0.2467E-08 (  3,  1, 78)


                                          ================================================
                                                         FROM TIME =   960.00     TO    970.00    

 
 SOLVING FOR HEAD 
 FLOW MODEL IS TRANSIENT
 FLOW MODEL CONTAINS CONSTANT-HEAD CELLS


 MAXIMUM STEPSIZE DURING WHICH ANY PARTICLE CANNOT MOVE MORE THAN ONE CELL
 =  5.271    (WHEN MIN. R.F.=1)  AT K=   3, I=   1, J=  74

 MAXIMUM STEPSIZE WHICH MEETS STABILITY CRITERION OF THE ADVECTION TERM
 (FOR PURE FINITE-DIFFERENCE OPTION, MIXELM=0) 
 =  3.200    (WHEN MIN. R.F.=1)  AT K=   2, I=   1, J=  82


 TOTAL NUMBER OF POINT SOURCES/SINKS PRESENT IN THE FLOW MODEL =    62

 MAXIMUM STEPSIZE WHICH MEETS STABILITY CRITERION OF THE SINK & SOURCE TERM
 =  76.13    (WHEN MIN. R.F.=1)  AT K=   2, I=   1, J= 120

 MAXIMUM STEPSIZE WHICH MEETS STABILITY CRITERION OF THE DISPERSION TERM
 =  20.29    (WHEN MIN. R.F.=1)  AT K=   1, I=   1, J=  31


     1 CALLS TO GCG PACKAGE FOR TRANSPORT TIME STEP   1 IN FLOW TIME STEP  97 STRESS PERIOD   1
     6 TOTAL ITERATIONS

 NO OUTPUT CONTROL FOR STRESS PERIOD    1   TIME STEP  97
 
 SOLVING FOR HEAD 
 FLOW MODEL IS TRANSIENT
 FLOW MODEL CONTAINS CONSTANT-HEAD CELLS


 MAXIMUM STEPSIZE DURING WHICH ANY PARTICLE CANNOT MOVE MORE THAN ONE CELL
 =  4.867    (WHEN MIN. R.F.=1)  AT K=   3, I=   1, J=  74

 MAXIMUM STEPSIZE WHICH MEETS STABILITY CRITERION OF THE ADVECTION TERM
 (FOR PURE FINITE-DIFFERENCE OPTION, MIXELM=0) 
 =  3.163    (WHEN MIN. R.F.=1)  AT K=   2, I=   1, J=  46


 TOTAL NUMBER OF POINT SOURCES/SINKS PRESENT IN THE FLOW MODEL =    62

 MAXIMUM STEPSIZE WHICH MEETS STABILITY CRITERION OF THE SINK & SOURCE TERM
 =  72.39    (WHEN MIN. R.F.=1)  AT K=   2, I=   1, J= 120

 MAXIMUM STEPSIZE WHICH MEETS STABILITY CRITERION OF THE DISPERSION TERM
 =  20.29    (WHEN MIN. R.F.=1)  AT K=   1, I=   1, J=  31
     1 CALLS TO GCG PACKAGE FOR TRANSPORT TIME STEP   2 IN FLOW TIME STEP  97 STRESS PERIOD   1
     6 TOTAL ITERATIONS
 
 SOLVING FOR HEAD 
 FLOW MODEL IS TRANSIENT
 FLOW MODEL CONTAINS CONSTANT-HEAD CELLS


 MAXIMUM STEPSIZE DURING WHICH ANY PARTICLE CANNOT MOVE MORE THAN ONE CELL
 =  4.629    (WHEN MIN. R.F.=1)  AT K=   3, I=   1, J=  74

 MAXIMUM STEPSIZE WHICH MEETS STABILITY CRITERION OF THE ADVECTION TERM
 (FOR PURE FINITE-DIFFERENCE OPTION, MIXELM=0) 
 =  2.859    (WHEN MIN. R.F.=1)  AT K=   2, I=   1, J=  81


 TOTAL NUMBER OF POINT SOURCES/SINKS PRESENT IN THE FLOW MODEL =    62

 MAXIMUM STEPSIZE WHICH MEETS STABILITY CRITERION OF THE SINK & SOURCE TERM
 =  71.42    (WHEN MIN. R.F.=1)  AT K=   2, I=   1, J= 120

 MAXIMUM STEPSIZE WHICH MEETS STABILITY CRITERION OF THE DISPERSION TERM
 =  20.29    (WHEN MIN. R.F.=1)  AT K=   1, I=   1, J=  31
     1 CALLS TO GCG PACKAGE FOR TRANSPORT TIME STEP   3 IN FLOW TIME STEP  97 STRESS PERIOD   1
     6 TOTAL ITERATIONS
 
 SOLVING FOR HEAD 
 FLOW MODEL IS TRANSIENT
 FLOW MODEL CONTAINS CONSTANT-HEAD CELLS


 MAXIMUM STEPSIZE DURING WHICH ANY PARTICLE CANNOT MOVE MORE THAN ONE CELL
 =  4.550    (WHEN MIN. R.F.=1)  AT K=   3, I=   1, J=  74

 MAXIMUM STEPSIZE WHICH MEETS STABILITY CRITERION OF THE ADVECTION TERM
 (FOR PURE FINITE-DIFFERENCE OPTION, MIXELM=0) 
 =  2.760    (WHEN MIN. R.F.=1)  AT K=   2, I=   1, J=  81


 TOTAL NUMBER OF POINT SOURCES/SINKS PRESENT IN THE FLOW MODEL =    62

 MAXIMUM STEPSIZE WHICH MEETS STABILITY CRITERION OF THE SINK & SOURCE TERM
 =  70.90    (WHEN MIN. R.F.=1)  AT K=   2, I=   1, J= 120

 MAXIMUM STEPSIZE WHICH MEETS STABILITY CRITERION OF THE DISPERSION TERM
 =  20.29    (WHEN MIN. R.F.=1)  AT K=   1, I=   1, J=  31
     1 CALLS TO GCG PACKAGE FOR TRANSPORT TIME STEP   4 IN FLOW TIME STEP  97 STRESS PERIOD   1
     6 TOTAL ITERATIONS
 
 SOLVING FOR HEAD 
 FLOW MODEL IS TRANSIENT
 FLOW MODEL CONTAINS CONSTANT-HEAD CELLS


 MAXIMUM STEPSIZE DURING WHICH ANY PARTICLE CANNOT MOVE MORE THAN ONE CELL
 =  4.555    (WHEN MIN. R.F.=1)  AT K=   4, I=   1, J=  74

 MAXIMUM STEPSIZE WHICH MEETS STABILITY CRITERION OF THE ADVECTION TERM
 (FOR PURE FINITE-DIFFERENCE OPTION, MIXELM=0) 
 =  2.819    (WHEN MIN. R.F.=1)  AT K=   2, I=   1, J=  81


 TOTAL NUMBER OF POINT SOURCES/SINKS PRESENT IN THE FLOW MODEL =    62

 MAXIMUM STEPSIZE WHICH MEETS STABILITY CRITERION OF THE SINK & SOURCE TERM
 =  69.75    (WHEN MIN. R.F.=1)  AT K=   2, I=   1, J= 120

 MAXIMUM STEPSIZE WHICH MEETS STABILITY CRITERION OF THE DISPERSION TERM
 =  20.29    (WHEN MIN. R.F.=1)  AT K=   1, I=   1, J=  31
     1 CALLS TO GCG PACKAGE FOR TRANSPORT TIME STEP   5 IN FLOW TIME STEP  97 STRESS PERIOD   1
     4 TOTAL ITERATIONS
  MAXIMUM CONCENTRATION CHANGES FOR EACH ITERATION:
  MAX. CHANGE LAYER,ROW,COL MAX. CHANGE LAYER,ROW,COL MAX. CHANGE LAYER,ROW,COL MAX. CHANGE LAYER,ROW,COL MAX. CHANGE LAYER,ROW,COL
 ------------------------------------------------------------------------------------------------------------------------------------
   0.1238E-01 (  2,  1, 82)  0.1206E-03 (  2,  1, 47)  0.2836E-05 (  3,  1, 80)  0.4129E-07 (  4,  1, 80)


                                          ================================================
                                                         FROM TIME =   970.00     TO    980.00    

 
 SOLVING FOR HEAD 
 FLOW MODEL IS TRANSIENT
 FLOW MODEL CONTAINS CONSTANT-HEAD CELLS


 MAXIMUM STEPSIZE DURING WHICH ANY PARTICLE CANNOT MOVE MORE THAN ONE CELL
 =  4.548    (WHEN MIN. R.F.=1)  AT K=   4, I=   1, J=  74

 MAXIMUM STEPSIZE WHICH MEETS STABILITY CRITERION OF THE ADVECTION TERM
 (FOR PURE FINITE-DIFFERENCE OPTION, MIXELM=0) 
 =  2.884    (WHEN MIN. R.F.=1)  AT K=   2, I=   1, J=  81


 TOTAL NUMBER OF POINT SOURCES/SINKS PRESENT IN THE FLOW MODEL =    62

 MAXIMUM STEPSIZE WHICH MEETS STABILITY CRITERION OF THE SINK & SOURCE TERM
 =  73.64    (WHEN MIN. R.F.=1)  AT K=   2, I=   1, J= 120

 MAXIMUM STEPSIZE WHICH MEETS STABILITY CRITERION OF THE DISPERSION TERM
 =  20.29    (WHEN MIN. R.F.=1)  AT K=   1, I=   1, J=  31


     1 CALLS TO GCG PACKAGE FOR TRANSPORT TIME STEP   1 IN FLOW TIME STEP  98 STRESS PERIOD   1
     6 TOTAL ITERATIONS

 NO OUTPUT CONTROL FOR STRESS PERIOD    1   TIME STEP  98
 
 SOLVING FOR HEAD 
 FLOW MODEL IS TRANSIENT
 FLOW MODEL CONTAINS CONSTANT-HEAD CELLS


 MAXIMUM STEPSIZE DURING WHICH ANY PARTICLE CANNOT MOVE MORE THAN ONE CELL
 =  4.597    (WHEN MIN. R.F.=1)  AT K=   4, I=   1, J=  74

 MAXIMUM STEPSIZE WHICH MEETS STABILITY CRITERION OF THE ADVECTION TERM
 (FOR PURE FINITE-DIFFERENCE OPTION, MIXELM=0) 
 =  2.995    (WHEN MIN. R.F.=1)  AT K=   2, I=   1, J=  80


 TOTAL NUMBER OF POINT SOURCES/SINKS PRESENT IN THE FLOW MODEL =    62

 MAXIMUM STEPSIZE WHICH MEETS STABILITY CRITERION OF THE SINK & SOURCE TERM
 =  71.03    (WHEN MIN. R.F.=1)  AT K=   2, I=   1, J= 120

 MAXIMUM STEPSIZE WHICH MEETS STABILITY CRITERION OF THE DISPERSION TERM
 =  20.29    (WHEN MIN. R.F.=1)  AT K=   1, I=   1, J=  31
     1 CALLS TO GCG PACKAGE FOR TRANSPORT TIME STEP   2 IN FLOW TIME STEP  98 STRESS PERIOD   1
     6 TOTAL ITERATIONS
 
 SOLVING FOR HEAD 
 FLOW MODEL IS TRANSIENT
 FLOW MODEL CONTAINS CONSTANT-HEAD CELLS


 MAXIMUM STEPSIZE DURING WHICH ANY PARTICLE CANNOT MOVE MORE THAN ONE CELL
 =  4.528    (WHEN MIN. R.F.=1)  AT K=   4, I=   1, J=  73

 MAXIMUM STEPSIZE WHICH MEETS STABILITY CRITERION OF THE ADVECTION TERM
 (FOR PURE FINITE-DIFFERENCE OPTION, MIXELM=0) 
 =  2.762    (WHEN MIN. R.F.=1)  AT K=   2, I=   1, J=  80


 TOTAL NUMBER OF POINT SOURCES/SINKS PRESENT IN THE FLOW MODEL =    62

 MAXIMUM STEPSIZE WHICH MEETS STABILITY CRITERION OF THE SINK & SOURCE TERM
 =  70.59    (WHEN MIN. R.F.=1)  AT K=   2, I=   1, J= 120

 MAXIMUM STEPSIZE WHICH MEETS STABILITY CRITERION OF THE DISPERSION TERM
 =  20.29    (WHEN MIN. R.F.=1)  AT K=   1, I=   1, J=  31
     1 CALLS TO GCG PACKAGE FOR TRANSPORT TIME STEP   3 IN FLOW TIME STEP  98 STRESS PERIOD   1
     6 TOTAL ITERATIONS
 
 SOLVING FOR HEAD 
 FLOW MODEL IS TRANSIENT
 FLOW MODEL CONTAINS CONSTANT-HEAD CELLS


 MAXIMUM STEPSIZE DURING WHICH ANY PARTICLE CANNOT MOVE MORE THAN ONE CELL
 =  4.452    (WHEN MIN. R.F.=1)  AT K=   4, I=   1, J=  73

 MAXIMUM STEPSIZE WHICH MEETS STABILITY CRITERION OF THE ADVECTION TERM
 (FOR PURE FINITE-DIFFERENCE OPTION, MIXELM=0) 
 =  2.669    (WHEN MIN. R.F.=1)  AT K=   2, I=   1, J=  80


 TOTAL NUMBER OF POINT SOURCES/SINKS PRESENT IN THE FLOW MODEL =    62

 MAXIMUM STEPSIZE WHICH MEETS STABILITY CRITERION OF THE SINK & SOURCE TERM
 =  70.14    (WHEN MIN. R.F.=1)  AT K=   2, I=   1, J= 120

 MAXIMUM STEPSIZE WHICH MEETS STABILITY CRITERION OF THE DISPERSION TERM
 =  20.29    (WHEN MIN. R.F.=1)  AT K=   1, I=   1, J=  31
     1 CALLS TO GCG PACKAGE FOR TRANSPORT TIME STEP   4 IN FLOW TIME STEP  98 STRESS PERIOD   1
     6 TOTAL ITERATIONS
 
 SOLVING FOR HEAD 
 FLOW MODEL IS TRANSIENT
 FLOW MODEL CONTAINS CONSTANT-HEAD CELLS


 MAXIMUM STEPSIZE DURING WHICH ANY PARTICLE CANNOT MOVE MORE THAN ONE CELL
 =  4.393    (WHEN MIN. R.F.=1)  AT K=   4, I=   1, J=  73

 MAXIMUM STEPSIZE WHICH MEETS STABILITY CRITERION OF THE ADVECTION TERM
 (FOR PURE FINITE-DIFFERENCE OPTION, MIXELM=0) 
 =  2.700    (WHEN MIN. R.F.=1)  AT K=   2, I=   1, J=  80


 TOTAL NUMBER OF POINT SOURCES/SINKS PRESENT IN THE FLOW MODEL =    62

 MAXIMUM STEPSIZE WHICH MEETS STABILITY CRITERION OF THE SINK & SOURCE TERM
 =  69.85    (WHEN MIN. R.F.=1)  AT K=   2, I=   1, J= 120

 MAXIMUM STEPSIZE WHICH MEETS STABILITY CRITERION OF THE DISPERSION TERM
 =  20.29    (WHEN MIN. R.F.=1)  AT K=   1, I=   1, J=  31
     1 CALLS TO GCG PACKAGE FOR TRANSPORT TIME STEP   5 IN FLOW TIME STEP  98 STRESS PERIOD   1
     5 TOTAL ITERATIONS
  MAXIMUM CONCENTRATION CHANGES FOR EACH ITERATION:
  MAX. CHANGE LAYER,ROW,COL MAX. CHANGE LAYER,ROW,COL MAX. CHANGE LAYER,ROW,COL MAX. CHANGE LAYER,ROW,COL MAX. CHANGE LAYER,ROW,COL
 ------------------------------------------------------------------------------------------------------------------------------------
   0.2565E-01 (  2,  1, 81)  0.4530E-03 (  2,  1, 81)  0.2024E-04 (  3,  1, 79)  0.5148E-06 (  3,  1, 82)  0.1780E-07 (  3,  1, 44)


                                          ================================================
                                                         FROM TIME =   980.00     TO    990.00    

 
 SOLVING FOR HEAD 
 FLOW MODEL IS TRANSIENT
 FLOW MODEL CONTAINS CONSTANT-HEAD CELLS


 MAXIMUM STEPSIZE DURING WHICH ANY PARTICLE CANNOT MOVE MORE THAN ONE CELL
 =  4.361    (WHEN MIN. R.F.=1)  AT K=   4, I=   1, J=  73

 MAXIMUM STEPSIZE WHICH MEETS STABILITY CRITERION OF THE ADVECTION TERM
 (FOR PURE FINITE-DIFFERENCE OPTION, MIXELM=0) 
 =  2.805    (WHEN MIN. R.F.=1)  AT K=   2, I=   1, J=  80


 TOTAL NUMBER OF POINT SOURCES/SINKS PRESENT IN THE FLOW MODEL =    62

 MAXIMUM STEPSIZE WHICH MEETS STABILITY CRITERION OF THE SINK & SOURCE TERM
 =  71.01    (WHEN MIN. R.F.=1)  AT K=   2, I=   1, J= 120

 MAXIMUM STEPSIZE WHICH MEETS STABILITY CRITERION OF THE DISPERSION TERM
 =  20.29    (WHEN MIN. R.F.=1)  AT K=   1, I=   1, J=  31


     1 CALLS TO GCG PACKAGE FOR TRANSPORT TIME STEP   1 IN FLOW TIME STEP  99 STRESS PERIOD   1
     6 TOTAL ITERATIONS

 NO OUTPUT CONTROL FOR STRESS PERIOD    1   TIME STEP  99
 
 SOLVING FOR HEAD 
 FLOW MODEL IS TRANSIENT
 FLOW MODEL CONTAINS CONSTANT-HEAD CELLS


 MAXIMUM STEPSIZE DURING WHICH ANY PARTICLE CANNOT MOVE MORE THAN ONE CELL
 =  4.327    (WHEN MIN. R.F.=1)  AT K=   4, I=   1, J=  73

 MAXIMUM STEPSIZE WHICH MEETS STABILITY CRITERION OF THE ADVECTION TERM
 (FOR PURE FINITE-DIFFERENCE OPTION, MIXELM=0) 
 =  2.987    (WHEN MIN. R.F.=1)  AT K=   2, I=   1, J=  40


 TOTAL NUMBER OF POINT SOURCES/SINKS PRESENT IN THE FLOW MODEL =    62

 MAXIMUM STEPSIZE WHICH MEETS STABILITY CRITERION OF THE SINK & SOURCE TERM
 =  69.51    (WHEN MIN. R.F.=1)  AT K=   2, I=   1, J= 120

 MAXIMUM STEPSIZE WHICH MEETS STABILITY CRITERION OF THE DISPERSION TERM
 =  20.29    (WHEN MIN. R.F.=1)  AT K=   1, I=   1, J=  31
     1 CALLS TO GCG PACKAGE FOR TRANSPORT TIME STEP   2 IN FLOW TIME STEP  99 STRESS PERIOD   1
     6 TOTAL ITERATIONS
 
 SOLVING FOR HEAD 
 FLOW MODEL IS TRANSIENT
 FLOW MODEL CONTAINS CONSTANT-HEAD CELLS


 MAXIMUM STEPSIZE DURING WHICH ANY PARTICLE CANNOT MOVE MORE THAN ONE CELL
 =  4.299    (WHEN MIN. R.F.=1)  AT K=   4, I=   1, J=  73

 MAXIMUM STEPSIZE WHICH MEETS STABILITY CRITERION OF THE ADVECTION TERM
 (FOR PURE FINITE-DIFFERENCE OPTION, MIXELM=0) 
 =  2.864    (WHEN MIN. R.F.=1)  AT K=   2, I=   1, J=  79


 TOTAL NUMBER OF POINT SOURCES/SINKS PRESENT IN THE FLOW MODEL =    62

 MAXIMUM STEPSIZE WHICH MEETS STABILITY CRITERION OF THE SINK & SOURCE TERM
 =  70.18    (WHEN MIN. R.F.=1)  AT K=   2, I=   1, J= 120

 MAXIMUM STEPSIZE WHICH MEETS STABILITY CRITERION OF THE DISPERSION TERM
 =  20.29    (WHEN MIN. R.F.=1)  AT K=   1, I=   1, J=  31
     1 CALLS TO GCG PACKAGE FOR TRANSPORT TIME STEP   3 IN FLOW TIME STEP  99 STRESS PERIOD   1
     6 TOTAL ITERATIONS
 
 SOLVING FOR HEAD 
 FLOW MODEL IS TRANSIENT
 FLOW MODEL CONTAINS CONSTANT-HEAD CELLS


 MAXIMUM STEPSIZE DURING WHICH ANY PARTICLE CANNOT MOVE MORE THAN ONE CELL
 =  4.288    (WHEN MIN. R.F.=1)  AT K=   4, I=   1, J=  73

 MAXIMUM STEPSIZE WHICH MEETS STABILITY CRITERION OF THE ADVECTION TERM
 (FOR PURE FINITE-DIFFERENCE OPTION, MIXELM=0) 
 =  2.752    (WHEN MIN. R.F.=1)  AT K=   2, I=   1, J=  79


 TOTAL NUMBER OF POINT SOURCES/SINKS PRESENT IN THE FLOW MODEL =    62

 MAXIMUM STEPSIZE WHICH MEETS STABILITY CRITERION OF THE SINK & SOURCE TERM
 =  70.35    (WHEN MIN. R.F.=1)  AT K=   2, I=   1, J= 120

 MAXIMUM STEPSIZE WHICH MEETS STABILITY CRITERION OF THE DISPERSION TERM
 =  20.29    (WHEN MIN. R.F.=1)  AT K=   1, I=   1, J=  31
     1 CALLS TO GCG PACKAGE FOR TRANSPORT TIME STEP   4 IN FLOW TIME STEP  99 STRESS PERIOD   1
     6 TOTAL ITERATIONS
 
 SOLVING FOR HEAD 
 FLOW MODEL IS TRANSIENT
 FLOW MODEL CONTAINS CONSTANT-HEAD CELLS


 MAXIMUM STEPSIZE DURING WHICH ANY PARTICLE CANNOT MOVE MORE THAN ONE CELL
 =  4.299    (WHEN MIN. R.F.=1)  AT K=   4, I=   1, J=  73

 MAXIMUM STEPSIZE WHICH MEETS STABILITY CRITERION OF THE ADVECTION TERM
 (FOR PURE FINITE-DIFFERENCE OPTION, MIXELM=0) 
 =  2.759    (WHEN MIN. R.F.=1)  AT K=   2, I=   1, J=  79


 TOTAL NUMBER OF POINT SOURCES/SINKS PRESENT IN THE FLOW MODEL =    62

 MAXIMUM STEPSIZE WHICH MEETS STABILITY CRITERION OF THE SINK & SOURCE TERM
 =  70.34    (WHEN MIN. R.F.=1)  AT K=   2, I=   1, J= 120

 MAXIMUM STEPSIZE WHICH MEETS STABILITY CRITERION OF THE DISPERSION TERM
 =  20.29    (WHEN MIN. R.F.=1)  AT K=   1, I=   1, J=  31
     1 CALLS TO GCG PACKAGE FOR TRANSPORT TIME STEP   5 IN FLOW TIME STEP  99 STRESS PERIOD   1
     5 TOTAL ITERATIONS
  MAXIMUM CONCENTRATION CHANGES FOR EACH ITERATION:
  MAX. CHANGE LAYER,ROW,COL MAX. CHANGE LAYER,ROW,COL MAX. CHANGE LAYER,ROW,COL MAX. CHANGE LAYER,ROW,COL MAX. CHANGE LAYER,ROW,COL
 ------------------------------------------------------------------------------------------------------------------------------------
   0.2663E-01 (  2,  1, 80)  0.6368E-03 (  2,  1, 80)  0.1820E-04 (  2,  1, 81)  0.6387E-06 (  3,  1, 81)  0.2150E-07 (  4,  1, 80)


                                          ================================================
                                                         FROM TIME =   990.00     TO   1000.00    

 
 SOLVING FOR HEAD 
 FLOW MODEL IS TRANSIENT
 FLOW MODEL CONTAINS CONSTANT-HEAD CELLS


 MAXIMUM STEPSIZE DURING WHICH ANY PARTICLE CANNOT MOVE MORE THAN ONE CELL
 =  4.321    (WHEN MIN. R.F.=1)  AT K=   4, I=   1, J=  73

 MAXIMUM STEPSIZE WHICH MEETS STABILITY CRITERION OF THE ADVECTION TERM
 (FOR PURE FINITE-DIFFERENCE OPTION, MIXELM=0) 
 =  2.819    (WHEN MIN. R.F.=1)  AT K=   2, I=   1, J=  79


 TOTAL NUMBER OF POINT SOURCES/SINKS PRESENT IN THE FLOW MODEL =    62

 MAXIMUM STEPSIZE WHICH MEETS STABILITY CRITERION OF THE SINK & SOURCE TERM
 =  72.17    (WHEN MIN. R.F.=1)  AT K=   2, I=   1, J= 120

 MAXIMUM STEPSIZE WHICH MEETS STABILITY CRITERION OF THE DISPERSION TERM
 =  20.29    (WHEN MIN. R.F.=1)  AT K=   1, I=   1, J=  31


     1 CALLS TO GCG PACKAGE FOR TRANSPORT TIME STEP   1 IN FLOW TIME STEP 100 STRESS PERIOD   1
     6 TOTAL ITERATIONS

 NO OUTPUT CONTROL FOR STRESS PERIOD    1   TIME STEP 100
 
 SOLVING FOR HEAD 
 FLOW MODEL IS TRANSIENT
 FLOW MODEL CONTAINS CONSTANT-HEAD CELLS


 MAXIMUM STEPSIZE DURING WHICH ANY PARTICLE CANNOT MOVE MORE THAN ONE CELL
 =  4.372    (WHEN MIN. R.F.=1)  AT K=   4, I=   1, J=  73

 MAXIMUM STEPSIZE WHICH MEETS STABILITY CRITERION OF THE ADVECTION TERM
 (FOR PURE FINITE-DIFFERENCE OPTION, MIXELM=0) 
 =  2.848    (WHEN MIN. R.F.=1)  AT K=   2, I=   1, J=  41


 TOTAL NUMBER OF POINT SOURCES/SINKS PRESENT IN THE FLOW MODEL =    62

 MAXIMUM STEPSIZE WHICH MEETS STABILITY CRITERION OF THE SINK & SOURCE TERM
 =  71.57    (WHEN MIN. R.F.=1)  AT K=   2, I=   1, J= 120

 MAXIMUM STEPSIZE WHICH MEETS STABILITY CRITERION OF THE DISPERSION TERM
 =  20.29    (WHEN MIN. R.F.=1)  AT K=   1, I=   1, J=  31
     1 CALLS TO GCG PACKAGE FOR TRANSPORT TIME STEP   2 IN FLOW TIME STEP 100 STRESS PERIOD   1
     6 TOTAL ITERATIONS
 
 SOLVING FOR HEAD 
 FLOW MODEL IS TRANSIENT
 FLOW MODEL CONTAINS CONSTANT-HEAD CELLS


 MAXIMUM STEPSIZE DURING WHICH ANY PARTICLE CANNOT MOVE MORE THAN ONE CELL
 =  4.451    (WHEN MIN. R.F.=1)  AT K=   4, I=   1, J=  73

 MAXIMUM STEPSIZE WHICH MEETS STABILITY CRITERION OF THE ADVECTION TERM
 (FOR PURE FINITE-DIFFERENCE OPTION, MIXELM=0) 
 =  2.932    (WHEN MIN. R.F.=1)  AT K=   2, I=   1, J=  41


 TOTAL NUMBER OF POINT SOURCES/SINKS PRESENT IN THE FLOW MODEL =    62

 MAXIMUM STEPSIZE WHICH MEETS STABILITY CRITERION OF THE SINK & SOURCE TERM
 =  72.01    (WHEN MIN. R.F.=1)  AT K=   2, I=   1, J= 120

 MAXIMUM STEPSIZE WHICH MEETS STABILITY CRITERION OF THE DISPERSION TERM
 =  20.29    (WHEN MIN. R.F.=1)  AT K=   1, I=   1, J=  31
     1 CALLS TO GCG PACKAGE FOR TRANSPORT TIME STEP   3 IN FLOW TIME STEP 100 STRESS PERIOD   1
     6 TOTAL ITERATIONS
 
 SOLVING FOR HEAD 
 FLOW MODEL IS TRANSIENT
 FLOW MODEL CONTAINS CONSTANT-HEAD CELLS


 MAXIMUM STEPSIZE DURING WHICH ANY PARTICLE CANNOT MOVE MORE THAN ONE CELL
 =  4.557    (WHEN MIN. R.F.=1)  AT K=   4, I=   1, J=  73

 MAXIMUM STEPSIZE WHICH MEETS STABILITY CRITERION OF THE ADVECTION TERM
 (FOR PURE FINITE-DIFFERENCE OPTION, MIXELM=0) 
 =  2.802    (WHEN MIN. R.F.=1)  AT K=   2, I=   1, J=  78


 TOTAL NUMBER OF POINT SOURCES/SINKS PRESENT IN THE FLOW MODEL =    62

 MAXIMUM STEPSIZE WHICH MEETS STABILITY CRITERION OF THE SINK & SOURCE TERM
 =  72.24    (WHEN MIN. R.F.=1)  AT K=   2, I=   1, J= 120

 MAXIMUM STEPSIZE WHICH MEETS STABILITY CRITERION OF THE DISPERSION TERM
 =  20.29    (WHEN MIN. R.F.=1)  AT K=   1, I=   1, J=  31
     1 CALLS TO GCG PACKAGE FOR TRANSPORT TIME STEP   4 IN FLOW TIME STEP 100 STRESS PERIOD   1
     6 TOTAL ITERATIONS
 
 SOLVING FOR HEAD 
 FLOW MODEL IS TRANSIENT
 FLOW MODEL CONTAINS CONSTANT-HEAD CELLS


 MAXIMUM STEPSIZE DURING WHICH ANY PARTICLE CANNOT MOVE MORE THAN ONE CELL
 =  4.694    (WHEN MIN. R.F.=1)  AT K=   4, I=   1, J=  73

 MAXIMUM STEPSIZE WHICH MEETS STABILITY CRITERION OF THE ADVECTION TERM
 (FOR PURE FINITE-DIFFERENCE OPTION, MIXELM=0) 
 =  2.714    (WHEN MIN. R.F.=1)  AT K=   2, I=   1, J=  78


 TOTAL NUMBER OF POINT SOURCES/SINKS PRESENT IN THE FLOW MODEL =    62

 MAXIMUM STEPSIZE WHICH MEETS STABILITY CRITERION OF THE SINK & SOURCE TERM
 =  72.03    (WHEN MIN. R.F.=1)  AT K=   2, I=   1, J= 120

 MAXIMUM STEPSIZE WHICH MEETS STABILITY CRITERION OF THE DISPERSION TERM
 =  20.29    (WHEN MIN. R.F.=1)  AT K=   1, I=   1, J=  31
     1 CALLS TO GCG PACKAGE FOR TRANSPORT TIME STEP   5 IN FLOW TIME STEP 100 STRESS PERIOD   1
     5 TOTAL ITERATIONS
  MAXIMUM CONCENTRATION CHANGES FOR EACH ITERATION:
  MAX. CHANGE LAYER,ROW,COL MAX. CHANGE LAYER,ROW,COL MAX. CHANGE LAYER,ROW,COL MAX. CHANGE LAYER,ROW,COL MAX. CHANGE LAYER,ROW,COL
 ------------------------------------------------------------------------------------------------------------------------------------
   0.2433E-01 (  2,  1, 79)  0.5808E-03 (  2,  1, 79)  0.1733E-04 (  2,  1, 75)  0.7563E-06 (  3,  1, 75)  0.1717E-07 (  4,  1, 79)


                                          ================================================
                                                         FROM TIME =  1000.00     TO    1010.0    

 
 SOLVING FOR HEAD 
 FLOW MODEL IS TRANSIENT
 FLOW MODEL CONTAINS CONSTANT-HEAD CELLS


 MAXIMUM STEPSIZE DURING WHICH ANY PARTICLE CANNOT MOVE MORE THAN ONE CELL
 =  4.804    (WHEN MIN. R.F.=1)  AT K=   4, I=   1, J=  73

 MAXIMUM STEPSIZE WHICH MEETS STABILITY CRITERION OF THE ADVECTION TERM
 (FOR PURE FINITE-DIFFERENCE OPTION, MIXELM=0) 
 =  2.729    (WHEN MIN. R.F.=1)  AT K=   2, I=   1, J=  78


 TOTAL NUMBER OF POINT SOURCES/SINKS PRESENT IN THE FLOW MODEL =    62

 MAXIMUM STEPSIZE WHICH MEETS STABILITY CRITERION OF THE SINK & SOURCE TERM
 =  74.25    (WHEN MIN. R.F.=1)  AT K=   2, I=   1, J= 120

 MAXIMUM STEPSIZE WHICH MEETS STABILITY CRITERION OF THE DISPERSION TERM
 =  20.29    (WHEN MIN. R.F.=1)  AT K=   1, I=   1, J=  31


     1 CALLS TO GCG PACKAGE FOR TRANSPORT TIME STEP   1 IN FLOW TIME STEP 101 STRESS PERIOD   1
     5 TOTAL ITERATIONS

 NO OUTPUT CONTROL FOR STRESS PERIOD    1   TIME STEP 101
 
 SOLVING FOR HEAD 
 FLOW MODEL IS TRANSIENT
 FLOW MODEL CONTAINS CONSTANT-HEAD CELLS


 MAXIMUM STEPSIZE DURING WHICH ANY PARTICLE CANNOT MOVE MORE THAN ONE CELL
 =  4.924    (WHEN MIN. R.F.=1)  AT K=   4, I=   1, J=  49

 MAXIMUM STEPSIZE WHICH MEETS STABILITY CRITERION OF THE ADVECTION TERM
 (FOR PURE FINITE-DIFFERENCE OPTION, MIXELM=0) 
 =  2.811    (WHEN MIN. R.F.=1)  AT K=   2, I=   1, J=  78


 TOTAL NUMBER OF POINT SOURCES/SINKS PRESENT IN THE FLOW MODEL =    62

 MAXIMUM STEPSIZE WHICH MEETS STABILITY CRITERION OF THE SINK & SOURCE TERM
 =  73.60    (WHEN MIN. R.F.=1)  AT K=   2, I=   1, J= 120

 MAXIMUM STEPSIZE WHICH MEETS STABILITY CRITERION OF THE DISPERSION TERM
 =  20.29    (WHEN MIN. R.F.=1)  AT K=   1, I=   1, J=  31
     1 CALLS TO GCG PACKAGE FOR TRANSPORT TIME STEP   2 IN FLOW TIME STEP 101 STRESS PERIOD   1
     5 TOTAL ITERATIONS
 
 SOLVING FOR HEAD 
 FLOW MODEL IS TRANSIENT
 FLOW MODEL CONTAINS CONSTANT-HEAD CELLS


 MAXIMUM STEPSIZE DURING WHICH ANY PARTICLE CANNOT MOVE MORE THAN ONE CELL
 =  4.940    (WHEN MIN. R.F.=1)  AT K=   4, I=   1, J=  49

 MAXIMUM STEPSIZE WHICH MEETS STABILITY CRITERION OF THE ADVECTION TERM
 (FOR PURE FINITE-DIFFERENCE OPTION, MIXELM=0) 
 =  2.924    (WHEN MIN. R.F.=1)  AT K=   2, I=   1, J=  42


 TOTAL NUMBER OF POINT SOURCES/SINKS PRESENT IN THE FLOW MODEL =    62

 MAXIMUM STEPSIZE WHICH MEETS STABILITY CRITERION OF THE SINK & SOURCE TERM
 =  73.89    (WHEN MIN. R.F.=1)  AT K=   2, I=   1, J= 120

 MAXIMUM STEPSIZE WHICH MEETS STABILITY CRITERION OF THE DISPERSION TERM
 =  20.29    (WHEN MIN. R.F.=1)  AT K=   1, I=   1, J=  31
     1 CALLS TO GCG PACKAGE FOR TRANSPORT TIME STEP   3 IN FLOW TIME STEP 101 STRESS PERIOD   1
     5 TOTAL ITERATIONS
 
 SOLVING FOR HEAD 
 FLOW MODEL IS TRANSIENT
 FLOW MODEL CONTAINS CONSTANT-HEAD CELLS


 MAXIMUM STEPSIZE DURING WHICH ANY PARTICLE CANNOT MOVE MORE THAN ONE CELL
 =  5.027    (WHEN MIN. R.F.=1)  AT K=   4, I=   1, J=  49

 MAXIMUM STEPSIZE WHICH MEETS STABILITY CRITERION OF THE ADVECTION TERM
 (FOR PURE FINITE-DIFFERENCE OPTION, MIXELM=0) 
 =  3.011    (WHEN MIN. R.F.=1)  AT K=   2, I=   1, J=  77


 TOTAL NUMBER OF POINT SOURCES/SINKS PRESENT IN THE FLOW MODEL =    62

 MAXIMUM STEPSIZE WHICH MEETS STABILITY CRITERION OF THE SINK & SOURCE TERM
 =  74.20    (WHEN MIN. R.F.=1)  AT K=   2, I=   1, J= 120

 MAXIMUM STEPSIZE WHICH MEETS STABILITY CRITERION OF THE DISPERSION TERM
 =  20.29    (WHEN MIN. R.F.=1)  AT K=   1, I=   1, J=  31
     1 CALLS TO GCG PACKAGE FOR TRANSPORT TIME STEP   4 IN FLOW TIME STEP 101 STRESS PERIOD   1
     6 TOTAL ITERATIONS
 
 SOLVING FOR HEAD 
 FLOW MODEL IS TRANSIENT
 FLOW MODEL CONTAINS CONSTANT-HEAD CELLS


 MAXIMUM STEPSIZE DURING WHICH ANY PARTICLE CANNOT MOVE MORE THAN ONE CELL
 =  4.879    (WHEN MIN. R.F.=1)  AT K=   3, I=   1, J=  77

 MAXIMUM STEPSIZE WHICH MEETS STABILITY CRITERION OF THE ADVECTION TERM
 (FOR PURE FINITE-DIFFERENCE OPTION, MIXELM=0) 
 =  2.833    (WHEN MIN. R.F.=1)  AT K=   2, I=   1, J=  77


 TOTAL NUMBER OF POINT SOURCES/SINKS PRESENT IN THE FLOW MODEL =    62

 MAXIMUM STEPSIZE WHICH MEETS STABILITY CRITERION OF THE SINK & SOURCE TERM
 =  73.94    (WHEN MIN. R.F.=1)  AT K=   2, I=   1, J= 120

 MAXIMUM STEPSIZE WHICH MEETS STABILITY CRITERION OF THE DISPERSION TERM
 =  20.29    (WHEN MIN. R.F.=1)  AT K=   1, I=   1, J=  31
     1 CALLS TO GCG PACKAGE FOR TRANSPORT TIME STEP   5 IN FLOW TIME STEP 101 STRESS PERIOD   1
     5 TOTAL ITERATIONS
  MAXIMUM CONCENTRATION CHANGES FOR EACH ITERATION:
  MAX. CHANGE LAYER,ROW,COL MAX. CHANGE LAYER,ROW,COL MAX. CHANGE LAYER,ROW,COL MAX. CHANGE LAYER,ROW,COL MAX. CHANGE LAYER,ROW,COL
 ------------------------------------------------------------------------------------------------------------------------------------
   0.2377E-01 (  2,  1, 41)  0.7209E-03 (  2,  1, 77)  0.1992E-04 (  3,  1, 77)  0.6478E-06 (  3,  1, 79)  0.2838E-07 (  4,  1, 78)


                                          ================================================
                                                         FROM TIME =   1010.0     TO    1020.0    

 
 SOLVING FOR HEAD 
 FLOW MODEL IS TRANSIENT
 FLOW MODEL CONTAINS CONSTANT-HEAD CELLS


 MAXIMUM STEPSIZE DURING WHICH ANY PARTICLE CANNOT MOVE MORE THAN ONE CELL
 =  4.886    (WHEN MIN. R.F.=1)  AT K=   3, I=   1, J=  77

 MAXIMUM STEPSIZE WHICH MEETS STABILITY CRITERION OF THE ADVECTION TERM
 (FOR PURE FINITE-DIFFERENCE OPTION, MIXELM=0) 
 =  2.790    (WHEN MIN. R.F.=1)  AT K=   2, I=   1, J=  77


 TOTAL NUMBER OF POINT SOURCES/SINKS PRESENT IN THE FLOW MODEL =    62

 MAXIMUM STEPSIZE WHICH MEETS STABILITY CRITERION OF THE SINK & SOURCE TERM
 =  75.96    (WHEN MIN. R.F.=1)  AT K=   2, I=   1, J= 120

 MAXIMUM STEPSIZE WHICH MEETS STABILITY CRITERION OF THE DISPERSION TERM
 =  20.29    (WHEN MIN. R.F.=1)  AT K=   1, I=   1, J=  31


     1 CALLS TO GCG PACKAGE FOR TRANSPORT TIME STEP   1 IN FLOW TIME STEP 102 STRESS PERIOD   1
     5 TOTAL ITERATIONS

 NO OUTPUT CONTROL FOR STRESS PERIOD    1   TIME STEP 102
 
 SOLVING FOR HEAD 
 FLOW MODEL IS TRANSIENT
 FLOW MODEL CONTAINS CONSTANT-HEAD CELLS


 MAXIMUM STEPSIZE DURING WHICH ANY PARTICLE CANNOT MOVE MORE THAN ONE CELL
 =  5.061    (WHEN MIN. R.F.=1)  AT K=   3, I=   1, J=  77

 MAXIMUM STEPSIZE WHICH MEETS STABILITY CRITERION OF THE ADVECTION TERM
 (FOR PURE FINITE-DIFFERENCE OPTION, MIXELM=0) 
 =  2.804    (WHEN MIN. R.F.=1)  AT K=   2, I=   1, J=  77


 TOTAL NUMBER OF POINT SOURCES/SINKS PRESENT IN THE FLOW MODEL =    62

 MAXIMUM STEPSIZE WHICH MEETS STABILITY CRITERION OF THE SINK & SOURCE TERM
 =  76.06    (WHEN MIN. R.F.=1)  AT K=   2, I=   1, J= 120

 MAXIMUM STEPSIZE WHICH MEETS STABILITY CRITERION OF THE DISPERSION TERM
 =  20.29    (WHEN MIN. R.F.=1)  AT K=   1, I=   1, J=  31
     1 CALLS TO GCG PACKAGE FOR TRANSPORT TIME STEP   2 IN FLOW TIME STEP 102 STRESS PERIOD   1
     5 TOTAL ITERATIONS
 
 SOLVING FOR HEAD 
 FLOW MODEL IS TRANSIENT
 FLOW MODEL CONTAINS CONSTANT-HEAD CELLS


 MAXIMUM STEPSIZE DURING WHICH ANY PARTICLE CANNOT MOVE MORE THAN ONE CELL
 =  5.175    (WHEN MIN. R.F.=1)  AT K=   4, I=   1, J=  50

 MAXIMUM STEPSIZE WHICH MEETS STABILITY CRITERION OF THE ADVECTION TERM
 (FOR PURE FINITE-DIFFERENCE OPTION, MIXELM=0) 
 =  2.909    (WHEN MIN. R.F.=1)  AT K=   2, I=   1, J=  77


 TOTAL NUMBER OF POINT SOURCES/SINKS PRESENT IN THE FLOW MODEL =    62

 MAXIMUM STEPSIZE WHICH MEETS STABILITY CRITERION OF THE SINK & SOURCE TERM
 =  76.99    (WHEN MIN. R.F.=1)  AT K=   2, I=   1, J= 120

 MAXIMUM STEPSIZE WHICH MEETS STABILITY CRITERION OF THE DISPERSION TERM
 =  20.29    (WHEN MIN. R.F.=1)  AT K=   1, I=   1, J=  31
     1 CALLS TO GCG PACKAGE FOR TRANSPORT TIME STEP   3 IN FLOW TIME STEP 102 STRESS PERIOD   1
     5 TOTAL ITERATIONS
 
 SOLVING FOR HEAD 
 FLOW MODEL IS TRANSIENT
 FLOW MODEL CONTAINS CONSTANT-HEAD CELLS


 MAXIMUM STEPSIZE DURING WHICH ANY PARTICLE CANNOT MOVE MORE THAN ONE CELL
 =  5.122    (WHEN MIN. R.F.=1)  AT K=   4, I=   1, J=  50

 MAXIMUM STEPSIZE WHICH MEETS STABILITY CRITERION OF THE ADVECTION TERM
 (FOR PURE FINITE-DIFFERENCE OPTION, MIXELM=0) 
 =  3.071    (WHEN MIN. R.F.=1)  AT K=   2, I=   1, J=  43


 TOTAL NUMBER OF POINT SOURCES/SINKS PRESENT IN THE FLOW MODEL =    62

 MAXIMUM STEPSIZE WHICH MEETS STABILITY CRITERION OF THE SINK & SOURCE TERM
 =  77.59    (WHEN MIN. R.F.=1)  AT K=   2, I=   1, J= 120

 MAXIMUM STEPSIZE WHICH MEETS STABILITY CRITERION OF THE DISPERSION TERM
 =  20.29    (WHEN MIN. R.F.=1)  AT K=   1, I=   1, J=  31
     1 CALLS TO GCG PACKAGE FOR TRANSPORT TIME STEP   4 IN FLOW TIME STEP 102 STRESS PERIOD   1
     6 TOTAL ITERATIONS
 
 SOLVING FOR HEAD 
 FLOW MODEL IS TRANSIENT
 FLOW MODEL CONTAINS CONSTANT-HEAD CELLS


 MAXIMUM STEPSIZE DURING WHICH ANY PARTICLE CANNOT MOVE MORE THAN ONE CELL
 =  5.079    (WHEN MIN. R.F.=1)  AT K=   4, I=   1, J=  50

 MAXIMUM STEPSIZE WHICH MEETS STABILITY CRITERION OF THE ADVECTION TERM
 (FOR PURE FINITE-DIFFERENCE OPTION, MIXELM=0) 
 =  3.172    (WHEN MIN. R.F.=1)  AT K=   2, I=   1, J=  44


 TOTAL NUMBER OF POINT SOURCES/SINKS PRESENT IN THE FLOW MODEL =    62

 MAXIMUM STEPSIZE WHICH MEETS STABILITY CRITERION OF THE SINK & SOURCE TERM
 =  75.24    (WHEN MIN. R.F.=1)  AT K=   2, I=   1, J= 120

 MAXIMUM STEPSIZE WHICH MEETS STABILITY CRITERION OF THE DISPERSION TERM
 =  20.29    (WHEN MIN. R.F.=1)  AT K=   1, I=   1, J=  31
     1 CALLS TO GCG PACKAGE FOR TRANSPORT TIME STEP   5 IN FLOW TIME STEP 102 STRESS PERIOD   1
     4 TOTAL ITERATIONS



 >>>>>>>>>>>>>>>>>>>>>>>>>>>>>>>>>>>>>>>>>>>>>>>>>>>>>>>FOR COMPONENT NO. 01<<<<<<<<<<<<<<<<<<<<<<<<<<<<<<<<<<<<<<<<<<<<<<<<<<<<<<<


                                            -------------------------------------------
                                                      TRANSPORT STEP NO.    5
                                            -------------------------------------------

 TOTAL ELAPSED TIME SINCE BEGINNING OF SIMULATION =   1019.000    D   
 .....................................................................

                     CUMULATIVE MASS BUDGETS AT END OF TRANSPORT STEP    5, TIME STEP  102, STRESS PERIOD    1
                     ------------------------------------------------------------------------------------------

                                                             IN                           OUT
                                                      ----------------             ----------------
                               CONSTANT CONCENTRATION:    773887.0                   -172950.2    
                                        CONSTANT HEAD:    0.000000                  -0.9287418E-49
                               MASS STOR (FLOW MODEL):    129.1451                   -88.98987    
                                MASS STORAGE (SOLUTE):    1028028.                   -1629005.    
                            ---------------------------------------------------------------------------
                                              [TOTAL]:    1802044.     KG            -1802044.     KG  

                                                          NET (IN - OUT):   0.7240789E-02
                                                   DISCREPANCY (PERCENT):   0.4018098E-06
 
 SOLVING FOR HEAD 
 FLOW MODEL IS TRANSIENT
 FLOW MODEL CONTAINS CONSTANT-HEAD CELLS


 MAXIMUM STEPSIZE DURING WHICH ANY PARTICLE CANNOT MOVE MORE THAN ONE CELL
 =  5.072    (WHEN MIN. R.F.=1)  AT K=   4, I=   1, J=  50

 MAXIMUM STEPSIZE WHICH MEETS STABILITY CRITERION OF THE ADVECTION TERM
 (FOR PURE FINITE-DIFFERENCE OPTION, MIXELM=0) 
 =  3.120    (WHEN MIN. R.F.=1)  AT K=   2, I=   1, J=  44


 TOTAL NUMBER OF POINT SOURCES/SINKS PRESENT IN THE FLOW MODEL =    62

 MAXIMUM STEPSIZE WHICH MEETS STABILITY CRITERION OF THE SINK & SOURCE TERM
 =  78.13    (WHEN MIN. R.F.=1)  AT K=   2, I=   1, J= 120

 MAXIMUM STEPSIZE WHICH MEETS STABILITY CRITERION OF THE DISPERSION TERM
 =  20.29    (WHEN MIN. R.F.=1)  AT K=   1, I=   1, J=  31
     1 CALLS TO GCG PACKAGE FOR TRANSPORT TIME STEP   6 IN FLOW TIME STEP 102 STRESS PERIOD   1
     5 TOTAL ITERATIONS
  MAXIMUM CONCENTRATION CHANGES FOR EACH ITERATION:
  MAX. CHANGE LAYER,ROW,COL MAX. CHANGE LAYER,ROW,COL MAX. CHANGE LAYER,ROW,COL MAX. CHANGE LAYER,ROW,COL MAX. CHANGE LAYER,ROW,COL
 ------------------------------------------------------------------------------------------------------------------------------------
   0.1517E-01 (  2,  1, 42)  0.3243E-03 (  2,  1, 76)  0.6150E-05 (  3,  1, 76)  0.1116E-06 (  3,  1, 47)  0.2513E-08 (  4,  1, 77)


                                          ================================================
                                                         FROM TIME =   1020.0     TO    1030.0    

 
 SOLVING FOR HEAD 
 FLOW MODEL IS TRANSIENT
 FLOW MODEL CONTAINS CONSTANT-HEAD CELLS


 MAXIMUM STEPSIZE DURING WHICH ANY PARTICLE CANNOT MOVE MORE THAN ONE CELL
 =  5.061    (WHEN MIN. R.F.=1)  AT K=   4, I=   1, J=  50

 MAXIMUM STEPSIZE WHICH MEETS STABILITY CRITERION OF THE ADVECTION TERM
 (FOR PURE FINITE-DIFFERENCE OPTION, MIXELM=0) 
 =  3.036    (WHEN MIN. R.F.=1)  AT K=   2, I=   1, J=  44


 TOTAL NUMBER OF POINT SOURCES/SINKS PRESENT IN THE FLOW MODEL =    62

 MAXIMUM STEPSIZE WHICH MEETS STABILITY CRITERION OF THE SINK & SOURCE TERM
 =  79.79    (WHEN MIN. R.F.=1)  AT K=   2, I=   1, J= 120

 MAXIMUM STEPSIZE WHICH MEETS STABILITY CRITERION OF THE DISPERSION TERM
 =  20.29    (WHEN MIN. R.F.=1)  AT K=   1, I=   1, J=  31


     1 CALLS TO GCG PACKAGE FOR TRANSPORT TIME STEP   1 IN FLOW TIME STEP 103 STRESS PERIOD   1
     6 TOTAL ITERATIONS

 NO OUTPUT CONTROL FOR STRESS PERIOD    1   TIME STEP 103
 
 SOLVING FOR HEAD 
 FLOW MODEL IS TRANSIENT
 FLOW MODEL CONTAINS CONSTANT-HEAD CELLS


 MAXIMUM STEPSIZE DURING WHICH ANY PARTICLE CANNOT MOVE MORE THAN ONE CELL
 =  5.043    (WHEN MIN. R.F.=1)  AT K=   4, I=   1, J=  50

 MAXIMUM STEPSIZE WHICH MEETS STABILITY CRITERION OF THE ADVECTION TERM
 (FOR PURE FINITE-DIFFERENCE OPTION, MIXELM=0) 
 =  2.930    (WHEN MIN. R.F.=1)  AT K=   2, I=   1, J=  44


 TOTAL NUMBER OF POINT SOURCES/SINKS PRESENT IN THE FLOW MODEL =    62

 MAXIMUM STEPSIZE WHICH MEETS STABILITY CRITERION OF THE SINK & SOURCE TERM
 =  77.51    (WHEN MIN. R.F.=1)  AT K=   2, I=   1, J= 120

 MAXIMUM STEPSIZE WHICH MEETS STABILITY CRITERION OF THE DISPERSION TERM
 =  20.29    (WHEN MIN. R.F.=1)  AT K=   1, I=   1, J=  31
     1 CALLS TO GCG PACKAGE FOR TRANSPORT TIME STEP   2 IN FLOW TIME STEP 103 STRESS PERIOD   1
     6 TOTAL ITERATIONS
 
 SOLVING FOR HEAD 
 FLOW MODEL IS TRANSIENT
 FLOW MODEL CONTAINS CONSTANT-HEAD CELLS


 MAXIMUM STEPSIZE DURING WHICH ANY PARTICLE CANNOT MOVE MORE THAN ONE CELL
 =  5.048    (WHEN MIN. R.F.=1)  AT K=   4, I=   1, J=  50

 MAXIMUM STEPSIZE WHICH MEETS STABILITY CRITERION OF THE ADVECTION TERM
 (FOR PURE FINITE-DIFFERENCE OPTION, MIXELM=0) 
 =  2.958    (WHEN MIN. R.F.=1)  AT K=   2, I=   1, J=  44


 TOTAL NUMBER OF POINT SOURCES/SINKS PRESENT IN THE FLOW MODEL =    62

 MAXIMUM STEPSIZE WHICH MEETS STABILITY CRITERION OF THE SINK & SOURCE TERM
 =  78.50    (WHEN MIN. R.F.=1)  AT K=   2, I=   1, J= 120

 MAXIMUM STEPSIZE WHICH MEETS STABILITY CRITERION OF THE DISPERSION TERM
 =  20.29    (WHEN MIN. R.F.=1)  AT K=   1, I=   1, J=  31
     1 CALLS TO GCG PACKAGE FOR TRANSPORT TIME STEP   3 IN FLOW TIME STEP 103 STRESS PERIOD   1
     6 TOTAL ITERATIONS
 
 SOLVING FOR HEAD 
 FLOW MODEL IS TRANSIENT
 FLOW MODEL CONTAINS CONSTANT-HEAD CELLS


 MAXIMUM STEPSIZE DURING WHICH ANY PARTICLE CANNOT MOVE MORE THAN ONE CELL
 =  5.075    (WHEN MIN. R.F.=1)  AT K=   4, I=   1, J=  50

 MAXIMUM STEPSIZE WHICH MEETS STABILITY CRITERION OF THE ADVECTION TERM
 (FOR PURE FINITE-DIFFERENCE OPTION, MIXELM=0) 
 =  3.089    (WHEN MIN. R.F.=1)  AT K=   2, I=   1, J=  44


 TOTAL NUMBER OF POINT SOURCES/SINKS PRESENT IN THE FLOW MODEL =    62

 MAXIMUM STEPSIZE WHICH MEETS STABILITY CRITERION OF THE SINK & SOURCE TERM
 =  79.06    (WHEN MIN. R.F.=1)  AT K=   2, I=   1, J= 120

 MAXIMUM STEPSIZE WHICH MEETS STABILITY CRITERION OF THE DISPERSION TERM
 =  20.29    (WHEN MIN. R.F.=1)  AT K=   1, I=   1, J=  31
     1 CALLS TO GCG PACKAGE FOR TRANSPORT TIME STEP   4 IN FLOW TIME STEP 103 STRESS PERIOD   1
     6 TOTAL ITERATIONS
 
 SOLVING FOR HEAD 
 FLOW MODEL IS TRANSIENT
 FLOW MODEL CONTAINS CONSTANT-HEAD CELLS


 MAXIMUM STEPSIZE DURING WHICH ANY PARTICLE CANNOT MOVE MORE THAN ONE CELL
 =  5.127    (WHEN MIN. R.F.=1)  AT K=   4, I=   1, J=  50

 MAXIMUM STEPSIZE WHICH MEETS STABILITY CRITERION OF THE ADVECTION TERM
 (FOR PURE FINITE-DIFFERENCE OPTION, MIXELM=0) 
 =  3.355    (WHEN MIN. R.F.=1)  AT K=   2, I=   1, J=  45


 TOTAL NUMBER OF POINT SOURCES/SINKS PRESENT IN THE FLOW MODEL =    62

 MAXIMUM STEPSIZE WHICH MEETS STABILITY CRITERION OF THE SINK & SOURCE TERM
 =  77.11    (WHEN MIN. R.F.=1)  AT K=   2, I=   1, J= 120

 MAXIMUM STEPSIZE WHICH MEETS STABILITY CRITERION OF THE DISPERSION TERM
 =  20.29    (WHEN MIN. R.F.=1)  AT K=   1, I=   1, J=  31
     1 CALLS TO GCG PACKAGE FOR TRANSPORT TIME STEP   5 IN FLOW TIME STEP 103 STRESS PERIOD   1
     5 TOTAL ITERATIONS
  MAXIMUM CONCENTRATION CHANGES FOR EACH ITERATION:
  MAX. CHANGE LAYER,ROW,COL MAX. CHANGE LAYER,ROW,COL MAX. CHANGE LAYER,ROW,COL MAX. CHANGE LAYER,ROW,COL MAX. CHANGE LAYER,ROW,COL
 ------------------------------------------------------------------------------------------------------------------------------------
   0.1616E-01 (  2,  1, 77)  0.2581E-03 (  2,  1, 75)  0.4743E-05 (  3,  1, 75)  0.1092E-06 (  3,  1, 74)  0.2719E-08 (  4,  1, 74)


                                          ================================================
                                                         FROM TIME =   1030.0     TO    1040.0    

 
 SOLVING FOR HEAD 
 FLOW MODEL IS TRANSIENT
 FLOW MODEL CONTAINS CONSTANT-HEAD CELLS


 MAXIMUM STEPSIZE DURING WHICH ANY PARTICLE CANNOT MOVE MORE THAN ONE CELL
 =  5.160    (WHEN MIN. R.F.=1)  AT K=   4, I=   1, J=  50

 MAXIMUM STEPSIZE WHICH MEETS STABILITY CRITERION OF THE ADVECTION TERM
 (FOR PURE FINITE-DIFFERENCE OPTION, MIXELM=0) 
 =  3.239    (WHEN MIN. R.F.=1)  AT K=   2, I=   1, J=  45


 TOTAL NUMBER OF POINT SOURCES/SINKS PRESENT IN THE FLOW MODEL =    62

 MAXIMUM STEPSIZE WHICH MEETS STABILITY CRITERION OF THE SINK & SOURCE TERM
 =  80.33    (WHEN MIN. R.F.=1)  AT K=   2, I=   1, J= 120

 MAXIMUM STEPSIZE WHICH MEETS STABILITY CRITERION OF THE DISPERSION TERM
 =  20.29    (WHEN MIN. R.F.=1)  AT K=   1, I=   1, J=  31


     1 CALLS TO GCG PACKAGE FOR TRANSPORT TIME STEP   1 IN FLOW TIME STEP 104 STRESS PERIOD   1
     6 TOTAL ITERATIONS

 NO OUTPUT CONTROL FOR STRESS PERIOD    1   TIME STEP 104
 
 SOLVING FOR HEAD 
 FLOW MODEL IS TRANSIENT
 FLOW MODEL CONTAINS CONSTANT-HEAD CELLS


 MAXIMUM STEPSIZE DURING WHICH ANY PARTICLE CANNOT MOVE MORE THAN ONE CELL
 =  5.254    (WHEN MIN. R.F.=1)  AT K=   4, I=   1, J=  50

 MAXIMUM STEPSIZE WHICH MEETS STABILITY CRITERION OF THE ADVECTION TERM
 (FOR PURE FINITE-DIFFERENCE OPTION, MIXELM=0) 
 =  3.047    (WHEN MIN. R.F.=1)  AT K=   2, I=   1, J=  45


 TOTAL NUMBER OF POINT SOURCES/SINKS PRESENT IN THE FLOW MODEL =    62

 MAXIMUM STEPSIZE WHICH MEETS STABILITY CRITERION OF THE SINK & SOURCE TERM
 =  77.71    (WHEN MIN. R.F.=1)  AT K=   2, I=   1, J= 120

 MAXIMUM STEPSIZE WHICH MEETS STABILITY CRITERION OF THE DISPERSION TERM
 =  20.29    (WHEN MIN. R.F.=1)  AT K=   1, I=   1, J=  31
     1 CALLS TO GCG PACKAGE FOR TRANSPORT TIME STEP   2 IN FLOW TIME STEP 104 STRESS PERIOD   1
     6 TOTAL ITERATIONS
 
 SOLVING FOR HEAD 
 FLOW MODEL IS TRANSIENT
 FLOW MODEL CONTAINS CONSTANT-HEAD CELLS


 MAXIMUM STEPSIZE DURING WHICH ANY PARTICLE CANNOT MOVE MORE THAN ONE CELL
 =  5.366    (WHEN MIN. R.F.=1)  AT K=   4, I=   1, J=  50

 MAXIMUM STEPSIZE WHICH MEETS STABILITY CRITERION OF THE ADVECTION TERM
 (FOR PURE FINITE-DIFFERENCE OPTION, MIXELM=0) 
 =  3.023    (WHEN MIN. R.F.=1)  AT K=   2, I=   1, J=  45


 TOTAL NUMBER OF POINT SOURCES/SINKS PRESENT IN THE FLOW MODEL =    62

 MAXIMUM STEPSIZE WHICH MEETS STABILITY CRITERION OF THE SINK & SOURCE TERM
 =  77.42    (WHEN MIN. R.F.=1)  AT K=   2, I=   1, J= 120

 MAXIMUM STEPSIZE WHICH MEETS STABILITY CRITERION OF THE DISPERSION TERM
 =  20.29    (WHEN MIN. R.F.=1)  AT K=   1, I=   1, J=  31
     1 CALLS TO GCG PACKAGE FOR TRANSPORT TIME STEP   3 IN FLOW TIME STEP 104 STRESS PERIOD   1
     6 TOTAL ITERATIONS
 
 SOLVING FOR HEAD 
 FLOW MODEL IS TRANSIENT
 FLOW MODEL CONTAINS CONSTANT-HEAD CELLS


 MAXIMUM STEPSIZE DURING WHICH ANY PARTICLE CANNOT MOVE MORE THAN ONE CELL
 =  5.432    (WHEN MIN. R.F.=1)  AT K=   4, I=   1, J=  58

 MAXIMUM STEPSIZE WHICH MEETS STABILITY CRITERION OF THE ADVECTION TERM
 (FOR PURE FINITE-DIFFERENCE OPTION, MIXELM=0) 
 =  3.105    (WHEN MIN. R.F.=1)  AT K=   2, I=   1, J=  45


 TOTAL NUMBER OF POINT SOURCES/SINKS PRESENT IN THE FLOW MODEL =    62

 MAXIMUM STEPSIZE WHICH MEETS STABILITY CRITERION OF THE SINK & SOURCE TERM
 =  77.82    (WHEN MIN. R.F.=1)  AT K=   2, I=   1, J= 120

 MAXIMUM STEPSIZE WHICH MEETS STABILITY CRITERION OF THE DISPERSION TERM
 =  20.29    (WHEN MIN. R.F.=1)  AT K=   1, I=   1, J=  31
     1 CALLS TO GCG PACKAGE FOR TRANSPORT TIME STEP   4 IN FLOW TIME STEP 104 STRESS PERIOD   1
     6 TOTAL ITERATIONS
 
 SOLVING FOR HEAD 
 FLOW MODEL IS TRANSIENT
 FLOW MODEL CONTAINS CONSTANT-HEAD CELLS


 MAXIMUM STEPSIZE DURING WHICH ANY PARTICLE CANNOT MOVE MORE THAN ONE CELL
 =  5.444    (WHEN MIN. R.F.=1)  AT K=   4, I=   1, J=  58

 MAXIMUM STEPSIZE WHICH MEETS STABILITY CRITERION OF THE ADVECTION TERM
 (FOR PURE FINITE-DIFFERENCE OPTION, MIXELM=0) 
 =  3.325    (WHEN MIN. R.F.=1)  AT K=   2, I=   1, J=  45


 TOTAL NUMBER OF POINT SOURCES/SINKS PRESENT IN THE FLOW MODEL =    62

 MAXIMUM STEPSIZE WHICH MEETS STABILITY CRITERION OF THE SINK & SOURCE TERM
 =  74.93    (WHEN MIN. R.F.=1)  AT K=   2, I=   1, J= 120

 MAXIMUM STEPSIZE WHICH MEETS STABILITY CRITERION OF THE DISPERSION TERM
 =  20.29    (WHEN MIN. R.F.=1)  AT K=   1, I=   1, J=  31
     1 CALLS TO GCG PACKAGE FOR TRANSPORT TIME STEP   5 IN FLOW TIME STEP 104 STRESS PERIOD   1
     4 TOTAL ITERATIONS
  MAXIMUM CONCENTRATION CHANGES FOR EACH ITERATION:
  MAX. CHANGE LAYER,ROW,COL MAX. CHANGE LAYER,ROW,COL MAX. CHANGE LAYER,ROW,COL MAX. CHANGE LAYER,ROW,COL MAX. CHANGE LAYER,ROW,COL
 ------------------------------------------------------------------------------------------------------------------------------------
   0.8201E-02 (  2,  1, 76)  0.5918E-04 (  2,  1, 76)  0.6637E-06 (  2,  1, 77)  0.7683E-08 (  3,  1, 77)


                                          ================================================
                                                         FROM TIME =   1040.0     TO    1050.0    

 
 SOLVING FOR HEAD 
 FLOW MODEL IS TRANSIENT
 FLOW MODEL CONTAINS CONSTANT-HEAD CELLS


 MAXIMUM STEPSIZE DURING WHICH ANY PARTICLE CANNOT MOVE MORE THAN ONE CELL
 =  5.450    (WHEN MIN. R.F.=1)  AT K=   4, I=   1, J=  58

 MAXIMUM STEPSIZE WHICH MEETS STABILITY CRITERION OF THE ADVECTION TERM
 (FOR PURE FINITE-DIFFERENCE OPTION, MIXELM=0) 
 =  3.396    (WHEN MIN. R.F.=1)  AT K=   2, I=   1, J=  45


 TOTAL NUMBER OF POINT SOURCES/SINKS PRESENT IN THE FLOW MODEL =    62

 MAXIMUM STEPSIZE WHICH MEETS STABILITY CRITERION OF THE SINK & SOURCE TERM
 =  78.53    (WHEN MIN. R.F.=1)  AT K=   2, I=   1, J= 120

 MAXIMUM STEPSIZE WHICH MEETS STABILITY CRITERION OF THE DISPERSION TERM
 =  20.29    (WHEN MIN. R.F.=1)  AT K=   1, I=   1, J=  31


     1 CALLS TO GCG PACKAGE FOR TRANSPORT TIME STEP   1 IN FLOW TIME STEP 105 STRESS PERIOD   1
     6 TOTAL ITERATIONS

 NO OUTPUT CONTROL FOR STRESS PERIOD    1   TIME STEP 105
 
 SOLVING FOR HEAD 
 FLOW MODEL IS TRANSIENT
 FLOW MODEL CONTAINS CONSTANT-HEAD CELLS


 MAXIMUM STEPSIZE DURING WHICH ANY PARTICLE CANNOT MOVE MORE THAN ONE CELL
 =  5.463    (WHEN MIN. R.F.=1)  AT K=   4, I=   1, J=  58

 MAXIMUM STEPSIZE WHICH MEETS STABILITY CRITERION OF THE ADVECTION TERM
 (FOR PURE FINITE-DIFFERENCE OPTION, MIXELM=0) 
 =  3.301    (WHEN MIN. R.F.=1)  AT K=   2, I=   1, J=  46


 TOTAL NUMBER OF POINT SOURCES/SINKS PRESENT IN THE FLOW MODEL =    62

 MAXIMUM STEPSIZE WHICH MEETS STABILITY CRITERION OF THE SINK & SOURCE TERM
 =  75.51    (WHEN MIN. R.F.=1)  AT K=   2, I=   1, J= 120

 MAXIMUM STEPSIZE WHICH MEETS STABILITY CRITERION OF THE DISPERSION TERM
 =  20.29    (WHEN MIN. R.F.=1)  AT K=   1, I=   1, J=  31
     1 CALLS TO GCG PACKAGE FOR TRANSPORT TIME STEP   2 IN FLOW TIME STEP 105 STRESS PERIOD   1
     6 TOTAL ITERATIONS
 
 SOLVING FOR HEAD 
 FLOW MODEL IS TRANSIENT
 FLOW MODEL CONTAINS CONSTANT-HEAD CELLS


 MAXIMUM STEPSIZE DURING WHICH ANY PARTICLE CANNOT MOVE MORE THAN ONE CELL
 =  5.477    (WHEN MIN. R.F.=1)  AT K=   4, I=   1, J=  58

 MAXIMUM STEPSIZE WHICH MEETS STABILITY CRITERION OF THE ADVECTION TERM
 (FOR PURE FINITE-DIFFERENCE OPTION, MIXELM=0) 
 =  3.157    (WHEN MIN. R.F.=1)  AT K=   2, I=   1, J=  46


 TOTAL NUMBER OF POINT SOURCES/SINKS PRESENT IN THE FLOW MODEL =    62

 MAXIMUM STEPSIZE WHICH MEETS STABILITY CRITERION OF THE SINK & SOURCE TERM
 =  73.38    (WHEN MIN. R.F.=1)  AT K=   2, I=   1, J= 120

 MAXIMUM STEPSIZE WHICH MEETS STABILITY CRITERION OF THE DISPERSION TERM
 =  20.29    (WHEN MIN. R.F.=1)  AT K=   1, I=   1, J=  31
     1 CALLS TO GCG PACKAGE FOR TRANSPORT TIME STEP   3 IN FLOW TIME STEP 105 STRESS PERIOD   1
     6 TOTAL ITERATIONS
 
 SOLVING FOR HEAD 
 FLOW MODEL IS TRANSIENT
 FLOW MODEL CONTAINS CONSTANT-HEAD CELLS


 MAXIMUM STEPSIZE DURING WHICH ANY PARTICLE CANNOT MOVE MORE THAN ONE CELL
 =  5.492    (WHEN MIN. R.F.=1)  AT K=   4, I=   1, J=  58

 MAXIMUM STEPSIZE WHICH MEETS STABILITY CRITERION OF THE ADVECTION TERM
 (FOR PURE FINITE-DIFFERENCE OPTION, MIXELM=0) 
 =  3.168    (WHEN MIN. R.F.=1)  AT K=   2, I=   1, J=  46


 TOTAL NUMBER OF POINT SOURCES/SINKS PRESENT IN THE FLOW MODEL =    62

 MAXIMUM STEPSIZE WHICH MEETS STABILITY CRITERION OF THE SINK & SOURCE TERM
 =  71.71    (WHEN MIN. R.F.=1)  AT K=   2, I=   1, J= 120

 MAXIMUM STEPSIZE WHICH MEETS STABILITY CRITERION OF THE DISPERSION TERM
 =  20.29    (WHEN MIN. R.F.=1)  AT K=   1, I=   1, J=  31
     1 CALLS TO GCG PACKAGE FOR TRANSPORT TIME STEP   4 IN FLOW TIME STEP 105 STRESS PERIOD   1
     6 TOTAL ITERATIONS
 
 SOLVING FOR HEAD 
 FLOW MODEL IS TRANSIENT
 FLOW MODEL CONTAINS CONSTANT-HEAD CELLS


 MAXIMUM STEPSIZE DURING WHICH ANY PARTICLE CANNOT MOVE MORE THAN ONE CELL
 =  5.507    (WHEN MIN. R.F.=1)  AT K=   4, I=   1, J=  58

 MAXIMUM STEPSIZE WHICH MEETS STABILITY CRITERION OF THE ADVECTION TERM
 (FOR PURE FINITE-DIFFERENCE OPTION, MIXELM=0) 
 =  2.951    (WHEN MIN. R.F.=1)  AT K=   2, I=   1, J=  81


 TOTAL NUMBER OF POINT SOURCES/SINKS PRESENT IN THE FLOW MODEL =    62

 MAXIMUM STEPSIZE WHICH MEETS STABILITY CRITERION OF THE SINK & SOURCE TERM
 =  68.19    (WHEN MIN. R.F.=1)  AT K=   2, I=   1, J= 120

 MAXIMUM STEPSIZE WHICH MEETS STABILITY CRITERION OF THE DISPERSION TERM
 =  20.29    (WHEN MIN. R.F.=1)  AT K=   1, I=   1, J=  31
     1 CALLS TO GCG PACKAGE FOR TRANSPORT TIME STEP   5 IN FLOW TIME STEP 105 STRESS PERIOD   1
     3 TOTAL ITERATIONS
  MAXIMUM CONCENTRATION CHANGES FOR EACH ITERATION:
  MAX. CHANGE LAYER,ROW,COL MAX. CHANGE LAYER,ROW,COL MAX. CHANGE LAYER,ROW,COL MAX. CHANGE LAYER,ROW,COL MAX. CHANGE LAYER,ROW,COL
 ------------------------------------------------------------------------------------------------------------------------------------
   0.1638E-02 (  2,  1, 83)  0.2840E-05 (  2,  1, 82)  0.7543E-08 (  3,  1, 47)


                                          ================================================
                                                         FROM TIME =   1050.0     TO    1060.0    

 
 SOLVING FOR HEAD 
 FLOW MODEL IS TRANSIENT
 FLOW MODEL CONTAINS CONSTANT-HEAD CELLS


 MAXIMUM STEPSIZE DURING WHICH ANY PARTICLE CANNOT MOVE MORE THAN ONE CELL
 =  5.509    (WHEN MIN. R.F.=1)  AT K=   4, I=   1, J=  58

 MAXIMUM STEPSIZE WHICH MEETS STABILITY CRITERION OF THE ADVECTION TERM
 (FOR PURE FINITE-DIFFERENCE OPTION, MIXELM=0) 
 =  2.945    (WHEN MIN. R.F.=1)  AT K=   2, I=   1, J=  81


 TOTAL NUMBER OF POINT SOURCES/SINKS PRESENT IN THE FLOW MODEL =    62

 MAXIMUM STEPSIZE WHICH MEETS STABILITY CRITERION OF THE SINK & SOURCE TERM
 =  73.89    (WHEN MIN. R.F.=1)  AT K=   2, I=   1, J= 120

 MAXIMUM STEPSIZE WHICH MEETS STABILITY CRITERION OF THE DISPERSION TERM
 =  20.29    (WHEN MIN. R.F.=1)  AT K=   1, I=   1, J=  31


     1 CALLS TO GCG PACKAGE FOR TRANSPORT TIME STEP   1 IN FLOW TIME STEP 106 STRESS PERIOD   1
     6 TOTAL ITERATIONS

 NO OUTPUT CONTROL FOR STRESS PERIOD    1   TIME STEP 106
 
 SOLVING FOR HEAD 
 FLOW MODEL IS TRANSIENT
 FLOW MODEL CONTAINS CONSTANT-HEAD CELLS


 MAXIMUM STEPSIZE DURING WHICH ANY PARTICLE CANNOT MOVE MORE THAN ONE CELL
 =  5.182    (WHEN MIN. R.F.=1)  AT K=   3, I=   1, J=  73

 MAXIMUM STEPSIZE WHICH MEETS STABILITY CRITERION OF THE ADVECTION TERM
 (FOR PURE FINITE-DIFFERENCE OPTION, MIXELM=0) 
 =  2.881    (WHEN MIN. R.F.=1)  AT K=   2, I=   1, J=  81


 TOTAL NUMBER OF POINT SOURCES/SINKS PRESENT IN THE FLOW MODEL =    62

 MAXIMUM STEPSIZE WHICH MEETS STABILITY CRITERION OF THE SINK & SOURCE TERM
 =  71.59    (WHEN MIN. R.F.=1)  AT K=   2, I=   1, J= 120

 MAXIMUM STEPSIZE WHICH MEETS STABILITY CRITERION OF THE DISPERSION TERM
 =  20.29    (WHEN MIN. R.F.=1)  AT K=   1, I=   1, J=  31
     1 CALLS TO GCG PACKAGE FOR TRANSPORT TIME STEP   2 IN FLOW TIME STEP 106 STRESS PERIOD   1
     6 TOTAL ITERATIONS
 
 SOLVING FOR HEAD 
 FLOW MODEL IS TRANSIENT
 FLOW MODEL CONTAINS CONSTANT-HEAD CELLS


 MAXIMUM STEPSIZE DURING WHICH ANY PARTICLE CANNOT MOVE MORE THAN ONE CELL
 =  4.881    (WHEN MIN. R.F.=1)  AT K=   3, I=   1, J=  73

 MAXIMUM STEPSIZE WHICH MEETS STABILITY CRITERION OF THE ADVECTION TERM
 (FOR PURE FINITE-DIFFERENCE OPTION, MIXELM=0) 
 =  2.983    (WHEN MIN. R.F.=1)  AT K=   2, I=   1, J=  81


 TOTAL NUMBER OF POINT SOURCES/SINKS PRESENT IN THE FLOW MODEL =    62

 MAXIMUM STEPSIZE WHICH MEETS STABILITY CRITERION OF THE SINK & SOURCE TERM
 =  70.20    (WHEN MIN. R.F.=1)  AT K=   2, I=   1, J= 120

 MAXIMUM STEPSIZE WHICH MEETS STABILITY CRITERION OF THE DISPERSION TERM
 =  20.29    (WHEN MIN. R.F.=1)  AT K=   1, I=   1, J=  31
     1 CALLS TO GCG PACKAGE FOR TRANSPORT TIME STEP   3 IN FLOW TIME STEP 106 STRESS PERIOD   1
     6 TOTAL ITERATIONS
 
 SOLVING FOR HEAD 
 FLOW MODEL IS TRANSIENT
 FLOW MODEL CONTAINS CONSTANT-HEAD CELLS


 MAXIMUM STEPSIZE DURING WHICH ANY PARTICLE CANNOT MOVE MORE THAN ONE CELL
 =  4.688    (WHEN MIN. R.F.=1)  AT K=   3, I=   1, J=  73

 MAXIMUM STEPSIZE WHICH MEETS STABILITY CRITERION OF THE ADVECTION TERM
 (FOR PURE FINITE-DIFFERENCE OPTION, MIXELM=0) 
 =  2.984    (WHEN MIN. R.F.=1)  AT K=   2, I=   1, J=  80


 TOTAL NUMBER OF POINT SOURCES/SINKS PRESENT IN THE FLOW MODEL =    62

 MAXIMUM STEPSIZE WHICH MEETS STABILITY CRITERION OF THE SINK & SOURCE TERM
 =  69.20    (WHEN MIN. R.F.=1)  AT K=   2, I=   1, J= 120

 MAXIMUM STEPSIZE WHICH MEETS STABILITY CRITERION OF THE DISPERSION TERM
 =  20.29    (WHEN MIN. R.F.=1)  AT K=   1, I=   1, J=  31
     1 CALLS TO GCG PACKAGE FOR TRANSPORT TIME STEP   4 IN FLOW TIME STEP 106 STRESS PERIOD   1
     6 TOTAL ITERATIONS
 
 SOLVING FOR HEAD 
 FLOW MODEL IS TRANSIENT
 FLOW MODEL CONTAINS CONSTANT-HEAD CELLS


 MAXIMUM STEPSIZE DURING WHICH ANY PARTICLE CANNOT MOVE MORE THAN ONE CELL
 =  4.588    (WHEN MIN. R.F.=1)  AT K=   3, I=   1, J=  73

 MAXIMUM STEPSIZE WHICH MEETS STABILITY CRITERION OF THE ADVECTION TERM
 (FOR PURE FINITE-DIFFERENCE OPTION, MIXELM=0) 
 =  2.755    (WHEN MIN. R.F.=1)  AT K=   2, I=   1, J=  80


 TOTAL NUMBER OF POINT SOURCES/SINKS PRESENT IN THE FLOW MODEL =    62

 MAXIMUM STEPSIZE WHICH MEETS STABILITY CRITERION OF THE SINK & SOURCE TERM
 =  67.46    (WHEN MIN. R.F.=1)  AT K=   2, I=   1, J= 120

 MAXIMUM STEPSIZE WHICH MEETS STABILITY CRITERION OF THE DISPERSION TERM
 =  20.29    (WHEN MIN. R.F.=1)  AT K=   1, I=   1, J=  31
     1 CALLS TO GCG PACKAGE FOR TRANSPORT TIME STEP   5 IN FLOW TIME STEP 106 STRESS PERIOD   1
     5 TOTAL ITERATIONS
  MAXIMUM CONCENTRATION CHANGES FOR EACH ITERATION:
  MAX. CHANGE LAYER,ROW,COL MAX. CHANGE LAYER,ROW,COL MAX. CHANGE LAYER,ROW,COL MAX. CHANGE LAYER,ROW,COL MAX. CHANGE LAYER,ROW,COL
 ------------------------------------------------------------------------------------------------------------------------------------
   0.1832E-01 (  2,  1, 38)  0.2901E-03 (  2,  1, 80)  0.6839E-05 (  4,  1, 78)  0.2095E-06 (  4,  1, 82)  0.7327E-08 (  3,  1, 76)


                                          ================================================
                                                         FROM TIME =   1060.0     TO    1070.0    

 
 SOLVING FOR HEAD 
 FLOW MODEL IS TRANSIENT
 FLOW MODEL CONTAINS CONSTANT-HEAD CELLS


 MAXIMUM STEPSIZE DURING WHICH ANY PARTICLE CANNOT MOVE MORE THAN ONE CELL
 =  4.575    (WHEN MIN. R.F.=1)  AT K=   3, I=   1, J=  73

 MAXIMUM STEPSIZE WHICH MEETS STABILITY CRITERION OF THE ADVECTION TERM
 (FOR PURE FINITE-DIFFERENCE OPTION, MIXELM=0) 
 =  2.716    (WHEN MIN. R.F.=1)  AT K=   2, I=   1, J=  80


 TOTAL NUMBER OF POINT SOURCES/SINKS PRESENT IN THE FLOW MODEL =    62

 MAXIMUM STEPSIZE WHICH MEETS STABILITY CRITERION OF THE SINK & SOURCE TERM
 =  69.84    (WHEN MIN. R.F.=1)  AT K=   2, I=   1, J= 120

 MAXIMUM STEPSIZE WHICH MEETS STABILITY CRITERION OF THE DISPERSION TERM
 =  20.29    (WHEN MIN. R.F.=1)  AT K=   1, I=   1, J=  31


     1 CALLS TO GCG PACKAGE FOR TRANSPORT TIME STEP   1 IN FLOW TIME STEP 107 STRESS PERIOD   1
     6 TOTAL ITERATIONS

 NO OUTPUT CONTROL FOR STRESS PERIOD    1   TIME STEP 107
 
 SOLVING FOR HEAD 
 FLOW MODEL IS TRANSIENT
 FLOW MODEL CONTAINS CONSTANT-HEAD CELLS


 MAXIMUM STEPSIZE DURING WHICH ANY PARTICLE CANNOT MOVE MORE THAN ONE CELL
 =  4.508    (WHEN MIN. R.F.=1)  AT K=   4, I=   1, J=  73

 MAXIMUM STEPSIZE WHICH MEETS STABILITY CRITERION OF THE ADVECTION TERM
 (FOR PURE FINITE-DIFFERENCE OPTION, MIXELM=0) 
 =  2.728    (WHEN MIN. R.F.=1)  AT K=   2, I=   1, J=  80


 TOTAL NUMBER OF POINT SOURCES/SINKS PRESENT IN THE FLOW MODEL =    62

 MAXIMUM STEPSIZE WHICH MEETS STABILITY CRITERION OF THE SINK & SOURCE TERM
 =  67.88    (WHEN MIN. R.F.=1)  AT K=   2, I=   1, J= 120

 MAXIMUM STEPSIZE WHICH MEETS STABILITY CRITERION OF THE DISPERSION TERM
 =  20.29    (WHEN MIN. R.F.=1)  AT K=   1, I=   1, J=  31
     1 CALLS TO GCG PACKAGE FOR TRANSPORT TIME STEP   2 IN FLOW TIME STEP 107 STRESS PERIOD   1
     6 TOTAL ITERATIONS
 
 SOLVING FOR HEAD 
 FLOW MODEL IS TRANSIENT
 FLOW MODEL CONTAINS CONSTANT-HEAD CELLS


 MAXIMUM STEPSIZE DURING WHICH ANY PARTICLE CANNOT MOVE MORE THAN ONE CELL
 =  4.506    (WHEN MIN. R.F.=1)  AT K=   4, I=   1, J=  73

 MAXIMUM STEPSIZE WHICH MEETS STABILITY CRITERION OF THE ADVECTION TERM
 (FOR PURE FINITE-DIFFERENCE OPTION, MIXELM=0) 
 =  2.864    (WHEN MIN. R.F.=1)  AT K=   2, I=   1, J=  80


 TOTAL NUMBER OF POINT SOURCES/SINKS PRESENT IN THE FLOW MODEL =    62

 MAXIMUM STEPSIZE WHICH MEETS STABILITY CRITERION OF THE SINK & SOURCE TERM
 =  67.91    (WHEN MIN. R.F.=1)  AT K=   2, I=   1, J= 120

 MAXIMUM STEPSIZE WHICH MEETS STABILITY CRITERION OF THE DISPERSION TERM
 =  20.29    (WHEN MIN. R.F.=1)  AT K=   1, I=   1, J=  31
     1 CALLS TO GCG PACKAGE FOR TRANSPORT TIME STEP   3 IN FLOW TIME STEP 107 STRESS PERIOD   1
     5 TOTAL ITERATIONS
 
 SOLVING FOR HEAD 
 FLOW MODEL IS TRANSIENT
 FLOW MODEL CONTAINS CONSTANT-HEAD CELLS


 MAXIMUM STEPSIZE DURING WHICH ANY PARTICLE CANNOT MOVE MORE THAN ONE CELL
 =  4.584    (WHEN MIN. R.F.=1)  AT K=   4, I=   1, J=  73

 MAXIMUM STEPSIZE WHICH MEETS STABILITY CRITERION OF THE ADVECTION TERM
 (FOR PURE FINITE-DIFFERENCE OPTION, MIXELM=0) 
 =  3.049    (WHEN MIN. R.F.=1)  AT K=   2, I=   1, J=  79


 TOTAL NUMBER OF POINT SOURCES/SINKS PRESENT IN THE FLOW MODEL =    62

 MAXIMUM STEPSIZE WHICH MEETS STABILITY CRITERION OF THE SINK & SOURCE TERM
 =  67.91    (WHEN MIN. R.F.=1)  AT K=   2, I=   1, J= 120

 MAXIMUM STEPSIZE WHICH MEETS STABILITY CRITERION OF THE DISPERSION TERM
 =  20.29    (WHEN MIN. R.F.=1)  AT K=   1, I=   1, J=  31
     1 CALLS TO GCG PACKAGE FOR TRANSPORT TIME STEP   4 IN FLOW TIME STEP 107 STRESS PERIOD   1
     5 TOTAL ITERATIONS
 
 SOLVING FOR HEAD 
 FLOW MODEL IS TRANSIENT
 FLOW MODEL CONTAINS CONSTANT-HEAD CELLS


 MAXIMUM STEPSIZE DURING WHICH ANY PARTICLE CANNOT MOVE MORE THAN ONE CELL
 =  4.742    (WHEN MIN. R.F.=1)  AT K=   4, I=   1, J=  73

 MAXIMUM STEPSIZE WHICH MEETS STABILITY CRITERION OF THE ADVECTION TERM
 (FOR PURE FINITE-DIFFERENCE OPTION, MIXELM=0) 
 =  2.831    (WHEN MIN. R.F.=1)  AT K=   2, I=   1, J=  79


 TOTAL NUMBER OF POINT SOURCES/SINKS PRESENT IN THE FLOW MODEL =    62

 MAXIMUM STEPSIZE WHICH MEETS STABILITY CRITERION OF THE SINK & SOURCE TERM
 =  67.90    (WHEN MIN. R.F.=1)  AT K=   2, I=   1, J= 120

 MAXIMUM STEPSIZE WHICH MEETS STABILITY CRITERION OF THE DISPERSION TERM
 =  20.29    (WHEN MIN. R.F.=1)  AT K=   1, I=   1, J=  31
     1 CALLS TO GCG PACKAGE FOR TRANSPORT TIME STEP   5 IN FLOW TIME STEP 107 STRESS PERIOD   1
     5 TOTAL ITERATIONS
  MAXIMUM CONCENTRATION CHANGES FOR EACH ITERATION:
  MAX. CHANGE LAYER,ROW,COL MAX. CHANGE LAYER,ROW,COL MAX. CHANGE LAYER,ROW,COL MAX. CHANGE LAYER,ROW,COL MAX. CHANGE LAYER,ROW,COL
 ------------------------------------------------------------------------------------------------------------------------------------
   0.2671E-01 (  2,  1, 39)  0.8588E-03 (  2,  1, 79)  0.2418E-04 (  3,  1, 41)  0.8482E-06 (  3,  1, 81)  0.2820E-07 (  5,  1, 78)


                                          ================================================
                                                         FROM TIME =   1070.0     TO    1080.0    

 
 SOLVING FOR HEAD 
 FLOW MODEL IS TRANSIENT
 FLOW MODEL CONTAINS CONSTANT-HEAD CELLS


 MAXIMUM STEPSIZE DURING WHICH ANY PARTICLE CANNOT MOVE MORE THAN ONE CELL
 =  4.883    (WHEN MIN. R.F.=1)  AT K=   5, I=   1, J=  73

 MAXIMUM STEPSIZE WHICH MEETS STABILITY CRITERION OF THE ADVECTION TERM
 (FOR PURE FINITE-DIFFERENCE OPTION, MIXELM=0) 
 =  2.759    (WHEN MIN. R.F.=1)  AT K=   2, I=   1, J=  79


 TOTAL NUMBER OF POINT SOURCES/SINKS PRESENT IN THE FLOW MODEL =    62

 MAXIMUM STEPSIZE WHICH MEETS STABILITY CRITERION OF THE SINK & SOURCE TERM
 =  68.85    (WHEN MIN. R.F.=1)  AT K=   2, I=   1, J= 120

 MAXIMUM STEPSIZE WHICH MEETS STABILITY CRITERION OF THE DISPERSION TERM
 =  20.29    (WHEN MIN. R.F.=1)  AT K=   1, I=   1, J=  31


     1 CALLS TO GCG PACKAGE FOR TRANSPORT TIME STEP   1 IN FLOW TIME STEP 108 STRESS PERIOD   1
     5 TOTAL ITERATIONS

 NO OUTPUT CONTROL FOR STRESS PERIOD    1   TIME STEP 108
 
 SOLVING FOR HEAD 
 FLOW MODEL IS TRANSIENT
 FLOW MODEL CONTAINS CONSTANT-HEAD CELLS


 MAXIMUM STEPSIZE DURING WHICH ANY PARTICLE CANNOT MOVE MORE THAN ONE CELL
 =  4.976    (WHEN MIN. R.F.=1)  AT K=   4, I=   1, J=  72

 MAXIMUM STEPSIZE WHICH MEETS STABILITY CRITERION OF THE ADVECTION TERM
 (FOR PURE FINITE-DIFFERENCE OPTION, MIXELM=0) 
 =  2.768    (WHEN MIN. R.F.=1)  AT K=   2, I=   1, J=  79


 TOTAL NUMBER OF POINT SOURCES/SINKS PRESENT IN THE FLOW MODEL =    62

 MAXIMUM STEPSIZE WHICH MEETS STABILITY CRITERION OF THE SINK & SOURCE TERM
 =  67.58    (WHEN MIN. R.F.=1)  AT K=   2, I=   1, J= 120

 MAXIMUM STEPSIZE WHICH MEETS STABILITY CRITERION OF THE DISPERSION TERM
 =  20.29    (WHEN MIN. R.F.=1)  AT K=   1, I=   1, J=  31
     1 CALLS TO GCG PACKAGE FOR TRANSPORT TIME STEP   2 IN FLOW TIME STEP 108 STRESS PERIOD   1
     6 TOTAL ITERATIONS
 
 SOLVING FOR HEAD 
 FLOW MODEL IS TRANSIENT
 FLOW MODEL CONTAINS CONSTANT-HEAD CELLS


 MAXIMUM STEPSIZE DURING WHICH ANY PARTICLE CANNOT MOVE MORE THAN ONE CELL
 =  4.917    (WHEN MIN. R.F.=1)  AT K=   4, I=   1, J=  72

 MAXIMUM STEPSIZE WHICH MEETS STABILITY CRITERION OF THE ADVECTION TERM
 (FOR PURE FINITE-DIFFERENCE OPTION, MIXELM=0) 
 =  2.872    (WHEN MIN. R.F.=1)  AT K=   2, I=   1, J=  79


 TOTAL NUMBER OF POINT SOURCES/SINKS PRESENT IN THE FLOW MODEL =    62

 MAXIMUM STEPSIZE WHICH MEETS STABILITY CRITERION OF THE SINK & SOURCE TERM
 =  67.25    (WHEN MIN. R.F.=1)  AT K=   2, I=   1, J= 120

 MAXIMUM STEPSIZE WHICH MEETS STABILITY CRITERION OF THE DISPERSION TERM
 =  20.29    (WHEN MIN. R.F.=1)  AT K=   1, I=   1, J=  31
     1 CALLS TO GCG PACKAGE FOR TRANSPORT TIME STEP   3 IN FLOW TIME STEP 108 STRESS PERIOD   1
     6 TOTAL ITERATIONS
 
 SOLVING FOR HEAD 
 FLOW MODEL IS TRANSIENT
 FLOW MODEL CONTAINS CONSTANT-HEAD CELLS


 MAXIMUM STEPSIZE DURING WHICH ANY PARTICLE CANNOT MOVE MORE THAN ONE CELL
 =  4.866    (WHEN MIN. R.F.=1)  AT K=   4, I=   1, J=  72

 MAXIMUM STEPSIZE WHICH MEETS STABILITY CRITERION OF THE ADVECTION TERM
 (FOR PURE FINITE-DIFFERENCE OPTION, MIXELM=0) 
 =  2.914    (WHEN MIN. R.F.=1)  AT K=   2, I=   1, J=  41


 TOTAL NUMBER OF POINT SOURCES/SINKS PRESENT IN THE FLOW MODEL =    62

 MAXIMUM STEPSIZE WHICH MEETS STABILITY CRITERION OF THE SINK & SOURCE TERM
 =  67.43    (WHEN MIN. R.F.=1)  AT K=   2, I=   1, J= 120

 MAXIMUM STEPSIZE WHICH MEETS STABILITY CRITERION OF THE DISPERSION TERM
 =  20.29    (WHEN MIN. R.F.=1)  AT K=   1, I=   1, J=  31
     1 CALLS TO GCG PACKAGE FOR TRANSPORT TIME STEP   4 IN FLOW TIME STEP 108 STRESS PERIOD   1
     6 TOTAL ITERATIONS
 
 SOLVING FOR HEAD 
 FLOW MODEL IS TRANSIENT
 FLOW MODEL CONTAINS CONSTANT-HEAD CELLS


 MAXIMUM STEPSIZE DURING WHICH ANY PARTICLE CANNOT MOVE MORE THAN ONE CELL
 =  4.826    (WHEN MIN. R.F.=1)  AT K=   4, I=   1, J=  72

 MAXIMUM STEPSIZE WHICH MEETS STABILITY CRITERION OF THE ADVECTION TERM
 (FOR PURE FINITE-DIFFERENCE OPTION, MIXELM=0) 
 =  2.923    (WHEN MIN. R.F.=1)  AT K=   2, I=   1, J=  78


 TOTAL NUMBER OF POINT SOURCES/SINKS PRESENT IN THE FLOW MODEL =    62

 MAXIMUM STEPSIZE WHICH MEETS STABILITY CRITERION OF THE SINK & SOURCE TERM
 =  67.15    (WHEN MIN. R.F.=1)  AT K=   2, I=   1, J= 120

 MAXIMUM STEPSIZE WHICH MEETS STABILITY CRITERION OF THE DISPERSION TERM
 =  20.29    (WHEN MIN. R.F.=1)  AT K=   1, I=   1, J=  31
     1 CALLS TO GCG PACKAGE FOR TRANSPORT TIME STEP   5 IN FLOW TIME STEP 108 STRESS PERIOD   1
     5 TOTAL ITERATIONS
  MAXIMUM CONCENTRATION CHANGES FOR EACH ITERATION:
  MAX. CHANGE LAYER,ROW,COL MAX. CHANGE LAYER,ROW,COL MAX. CHANGE LAYER,ROW,COL MAX. CHANGE LAYER,ROW,COL MAX. CHANGE LAYER,ROW,COL
 ------------------------------------------------------------------------------------------------------------------------------------
   0.2318E-01 (  2,  1, 40)  0.7623E-03 (  2,  1, 78)  0.2296E-04 (  3,  1, 42)  0.6859E-06 (  3,  1, 75)  0.2185E-07 (  4,  1, 75)


                                          ================================================
                                                         FROM TIME =   1080.0     TO    1090.0    

 
 SOLVING FOR HEAD 
 FLOW MODEL IS TRANSIENT
 FLOW MODEL CONTAINS CONSTANT-HEAD CELLS


 MAXIMUM STEPSIZE DURING WHICH ANY PARTICLE CANNOT MOVE MORE THAN ONE CELL
 =  4.800    (WHEN MIN. R.F.=1)  AT K=   4, I=   1, J=  72

 MAXIMUM STEPSIZE WHICH MEETS STABILITY CRITERION OF THE ADVECTION TERM
 (FOR PURE FINITE-DIFFERENCE OPTION, MIXELM=0) 
 =  2.823    (WHEN MIN. R.F.=1)  AT K=   2, I=   1, J=  78


 TOTAL NUMBER OF POINT SOURCES/SINKS PRESENT IN THE FLOW MODEL =    62

 MAXIMUM STEPSIZE WHICH MEETS STABILITY CRITERION OF THE SINK & SOURCE TERM
 =  69.01    (WHEN MIN. R.F.=1)  AT K=   2, I=   1, J= 120

 MAXIMUM STEPSIZE WHICH MEETS STABILITY CRITERION OF THE DISPERSION TERM
 =  20.29    (WHEN MIN. R.F.=1)  AT K=   1, I=   1, J=  31


     1 CALLS TO GCG PACKAGE FOR TRANSPORT TIME STEP   1 IN FLOW TIME STEP 109 STRESS PERIOD   1
     6 TOTAL ITERATIONS

 NO OUTPUT CONTROL FOR STRESS PERIOD    1   TIME STEP 109
 
 SOLVING FOR HEAD 
 FLOW MODEL IS TRANSIENT
 FLOW MODEL CONTAINS CONSTANT-HEAD CELLS


 MAXIMUM STEPSIZE DURING WHICH ANY PARTICLE CANNOT MOVE MORE THAN ONE CELL
 =  4.778    (WHEN MIN. R.F.=1)  AT K=   4, I=   1, J=  72

 MAXIMUM STEPSIZE WHICH MEETS STABILITY CRITERION OF THE ADVECTION TERM
 (FOR PURE FINITE-DIFFERENCE OPTION, MIXELM=0) 
 =  2.777    (WHEN MIN. R.F.=1)  AT K=   2, I=   1, J=  78


 TOTAL NUMBER OF POINT SOURCES/SINKS PRESENT IN THE FLOW MODEL =    62

 MAXIMUM STEPSIZE WHICH MEETS STABILITY CRITERION OF THE SINK & SOURCE TERM
 =  67.91    (WHEN MIN. R.F.=1)  AT K=   2, I=   1, J= 120

 MAXIMUM STEPSIZE WHICH MEETS STABILITY CRITERION OF THE DISPERSION TERM
 =  20.29    (WHEN MIN. R.F.=1)  AT K=   1, I=   1, J=  31
     1 CALLS TO GCG PACKAGE FOR TRANSPORT TIME STEP   2 IN FLOW TIME STEP 109 STRESS PERIOD   1
     6 TOTAL ITERATIONS
 
 SOLVING FOR HEAD 
 FLOW MODEL IS TRANSIENT
 FLOW MODEL CONTAINS CONSTANT-HEAD CELLS


 MAXIMUM STEPSIZE DURING WHICH ANY PARTICLE CANNOT MOVE MORE THAN ONE CELL
 =  4.773    (WHEN MIN. R.F.=1)  AT K=   4, I=   1, J=  72

 MAXIMUM STEPSIZE WHICH MEETS STABILITY CRITERION OF THE ADVECTION TERM
 (FOR PURE FINITE-DIFFERENCE OPTION, MIXELM=0) 
 =  2.833    (WHEN MIN. R.F.=1)  AT K=   2, I=   1, J=  78


 TOTAL NUMBER OF POINT SOURCES/SINKS PRESENT IN THE FLOW MODEL =    62

 MAXIMUM STEPSIZE WHICH MEETS STABILITY CRITERION OF THE SINK & SOURCE TERM
 =  68.44    (WHEN MIN. R.F.=1)  AT K=   2, I=   1, J= 120

 MAXIMUM STEPSIZE WHICH MEETS STABILITY CRITERION OF THE DISPERSION TERM
 =  20.29    (WHEN MIN. R.F.=1)  AT K=   1, I=   1, J=  31
     1 CALLS TO GCG PACKAGE FOR TRANSPORT TIME STEP   3 IN FLOW TIME STEP 109 STRESS PERIOD   1
     5 TOTAL ITERATIONS
 
 SOLVING FOR HEAD 
 FLOW MODEL IS TRANSIENT
 FLOW MODEL CONTAINS CONSTANT-HEAD CELLS


 MAXIMUM STEPSIZE DURING WHICH ANY PARTICLE CANNOT MOVE MORE THAN ONE CELL
 =  4.786    (WHEN MIN. R.F.=1)  AT K=   4, I=   1, J=  72

 MAXIMUM STEPSIZE WHICH MEETS STABILITY CRITERION OF THE ADVECTION TERM
 (FOR PURE FINITE-DIFFERENCE OPTION, MIXELM=0) 
 =  2.885    (WHEN MIN. R.F.=1)  AT K=   2, I=   1, J=  42


 TOTAL NUMBER OF POINT SOURCES/SINKS PRESENT IN THE FLOW MODEL =    62

 MAXIMUM STEPSIZE WHICH MEETS STABILITY CRITERION OF THE SINK & SOURCE TERM
 =  69.06    (WHEN MIN. R.F.=1)  AT K=   2, I=   1, J= 120

 MAXIMUM STEPSIZE WHICH MEETS STABILITY CRITERION OF THE DISPERSION TERM
 =  20.29    (WHEN MIN. R.F.=1)  AT K=   1, I=   1, J=  31
     1 CALLS TO GCG PACKAGE FOR TRANSPORT TIME STEP   4 IN FLOW TIME STEP 109 STRESS PERIOD   1
     5 TOTAL ITERATIONS
 
 SOLVING FOR HEAD 
 FLOW MODEL IS TRANSIENT
 FLOW MODEL CONTAINS CONSTANT-HEAD CELLS


 MAXIMUM STEPSIZE DURING WHICH ANY PARTICLE CANNOT MOVE MORE THAN ONE CELL
 =  4.824    (WHEN MIN. R.F.=1)  AT K=   4, I=   1, J=  72

 MAXIMUM STEPSIZE WHICH MEETS STABILITY CRITERION OF THE ADVECTION TERM
 (FOR PURE FINITE-DIFFERENCE OPTION, MIXELM=0) 
 =  2.992    (WHEN MIN. R.F.=1)  AT K=   2, I=   1, J=  42


 TOTAL NUMBER OF POINT SOURCES/SINKS PRESENT IN THE FLOW MODEL =    62

 MAXIMUM STEPSIZE WHICH MEETS STABILITY CRITERION OF THE SINK & SOURCE TERM
 =  68.62    (WHEN MIN. R.F.=1)  AT K=   2, I=   1, J= 120

 MAXIMUM STEPSIZE WHICH MEETS STABILITY CRITERION OF THE DISPERSION TERM
 =  20.29    (WHEN MIN. R.F.=1)  AT K=   1, I=   1, J=  31
     1 CALLS TO GCG PACKAGE FOR TRANSPORT TIME STEP   5 IN FLOW TIME STEP 109 STRESS PERIOD   1
     5 TOTAL ITERATIONS
  MAXIMUM CONCENTRATION CHANGES FOR EACH ITERATION:
  MAX. CHANGE LAYER,ROW,COL MAX. CHANGE LAYER,ROW,COL MAX. CHANGE LAYER,ROW,COL MAX. CHANGE LAYER,ROW,COL MAX. CHANGE LAYER,ROW,COL
 ------------------------------------------------------------------------------------------------------------------------------------
   0.2314E-01 (  2,  1, 79)  0.6225E-03 (  2,  1, 77)  0.1729E-04 (  3,  1, 43)  0.4089E-06 (  3,  1, 74)  0.1477E-07 (  3,  1, 54)


                                          ================================================
                                                         FROM TIME =   1090.0     TO    1100.0    

 
 SOLVING FOR HEAD 
 FLOW MODEL IS TRANSIENT
 FLOW MODEL CONTAINS CONSTANT-HEAD CELLS


 MAXIMUM STEPSIZE DURING WHICH ANY PARTICLE CANNOT MOVE MORE THAN ONE CELL
 =  4.863    (WHEN MIN. R.F.=1)  AT K=   4, I=   1, J=  72

 MAXIMUM STEPSIZE WHICH MEETS STABILITY CRITERION OF THE ADVECTION TERM
 (FOR PURE FINITE-DIFFERENCE OPTION, MIXELM=0) 
 =  2.940    (WHEN MIN. R.F.=1)  AT K=   2, I=   1, J=  77


 TOTAL NUMBER OF POINT SOURCES/SINKS PRESENT IN THE FLOW MODEL =    62

 MAXIMUM STEPSIZE WHICH MEETS STABILITY CRITERION OF THE SINK & SOURCE TERM
 =  70.87    (WHEN MIN. R.F.=1)  AT K=   2, I=   1, J= 120

 MAXIMUM STEPSIZE WHICH MEETS STABILITY CRITERION OF THE DISPERSION TERM
 =  20.29    (WHEN MIN. R.F.=1)  AT K=   1, I=   1, J=  31


     1 CALLS TO GCG PACKAGE FOR TRANSPORT TIME STEP   1 IN FLOW TIME STEP 110 STRESS PERIOD   1
     6 TOTAL ITERATIONS

 NO OUTPUT CONTROL FOR STRESS PERIOD    1   TIME STEP 110
 
 SOLVING FOR HEAD 
 FLOW MODEL IS TRANSIENT
 FLOW MODEL CONTAINS CONSTANT-HEAD CELLS


 MAXIMUM STEPSIZE DURING WHICH ANY PARTICLE CANNOT MOVE MORE THAN ONE CELL
 =  4.936    (WHEN MIN. R.F.=1)  AT K=   4, I=   1, J=  72

 MAXIMUM STEPSIZE WHICH MEETS STABILITY CRITERION OF THE ADVECTION TERM
 (FOR PURE FINITE-DIFFERENCE OPTION, MIXELM=0) 
 =  2.820    (WHEN MIN. R.F.=1)  AT K=   2, I=   1, J=  77


 TOTAL NUMBER OF POINT SOURCES/SINKS PRESENT IN THE FLOW MODEL =    62

 MAXIMUM STEPSIZE WHICH MEETS STABILITY CRITERION OF THE SINK & SOURCE TERM
 =  69.69    (WHEN MIN. R.F.=1)  AT K=   2, I=   1, J= 120

 MAXIMUM STEPSIZE WHICH MEETS STABILITY CRITERION OF THE DISPERSION TERM
 =  20.29    (WHEN MIN. R.F.=1)  AT K=   1, I=   1, J=  31
     1 CALLS TO GCG PACKAGE FOR TRANSPORT TIME STEP   2 IN FLOW TIME STEP 110 STRESS PERIOD   1
     6 TOTAL ITERATIONS
 
 SOLVING FOR HEAD 
 FLOW MODEL IS TRANSIENT
 FLOW MODEL CONTAINS CONSTANT-HEAD CELLS


 MAXIMUM STEPSIZE DURING WHICH ANY PARTICLE CANNOT MOVE MORE THAN ONE CELL
 =  5.027    (WHEN MIN. R.F.=1)  AT K=   4, I=   1, J=  72

 MAXIMUM STEPSIZE WHICH MEETS STABILITY CRITERION OF THE ADVECTION TERM
 (FOR PURE FINITE-DIFFERENCE OPTION, MIXELM=0) 
 =  2.814    (WHEN MIN. R.F.=1)  AT K=   2, I=   1, J=  77


 TOTAL NUMBER OF POINT SOURCES/SINKS PRESENT IN THE FLOW MODEL =    62

 MAXIMUM STEPSIZE WHICH MEETS STABILITY CRITERION OF THE SINK & SOURCE TERM
 =  70.17    (WHEN MIN. R.F.=1)  AT K=   2, I=   1, J= 120

 MAXIMUM STEPSIZE WHICH MEETS STABILITY CRITERION OF THE DISPERSION TERM
 =  20.29    (WHEN MIN. R.F.=1)  AT K=   1, I=   1, J=  31
     1 CALLS TO GCG PACKAGE FOR TRANSPORT TIME STEP   3 IN FLOW TIME STEP 110 STRESS PERIOD   1
     5 TOTAL ITERATIONS
 
 SOLVING FOR HEAD 
 FLOW MODEL IS TRANSIENT
 FLOW MODEL CONTAINS CONSTANT-HEAD CELLS


 MAXIMUM STEPSIZE DURING WHICH ANY PARTICLE CANNOT MOVE MORE THAN ONE CELL
 =  5.131    (WHEN MIN. R.F.=1)  AT K=   4, I=   1, J=  72

 MAXIMUM STEPSIZE WHICH MEETS STABILITY CRITERION OF THE ADVECTION TERM
 (FOR PURE FINITE-DIFFERENCE OPTION, MIXELM=0) 
 =  2.901    (WHEN MIN. R.F.=1)  AT K=   2, I=   1, J=  77


 TOTAL NUMBER OF POINT SOURCES/SINKS PRESENT IN THE FLOW MODEL =    62

 MAXIMUM STEPSIZE WHICH MEETS STABILITY CRITERION OF THE SINK & SOURCE TERM
 =  70.78    (WHEN MIN. R.F.=1)  AT K=   2, I=   1, J= 120

 MAXIMUM STEPSIZE WHICH MEETS STABILITY CRITERION OF THE DISPERSION TERM
 =  20.29    (WHEN MIN. R.F.=1)  AT K=   1, I=   1, J=  31
     1 CALLS TO GCG PACKAGE FOR TRANSPORT TIME STEP   4 IN FLOW TIME STEP 110 STRESS PERIOD   1
     5 TOTAL ITERATIONS
 
 SOLVING FOR HEAD 
 FLOW MODEL IS TRANSIENT
 FLOW MODEL CONTAINS CONSTANT-HEAD CELLS


 MAXIMUM STEPSIZE DURING WHICH ANY PARTICLE CANNOT MOVE MORE THAN ONE CELL
 =  5.251    (WHEN MIN. R.F.=1)  AT K=   4, I=   1, J=  72

 MAXIMUM STEPSIZE WHICH MEETS STABILITY CRITERION OF THE ADVECTION TERM
 (FOR PURE FINITE-DIFFERENCE OPTION, MIXELM=0) 
 =  3.001    (WHEN MIN. R.F.=1)  AT K=   2, I=   1, J=  43


 TOTAL NUMBER OF POINT SOURCES/SINKS PRESENT IN THE FLOW MODEL =    62

 MAXIMUM STEPSIZE WHICH MEETS STABILITY CRITERION OF THE SINK & SOURCE TERM
 =  70.27    (WHEN MIN. R.F.=1)  AT K=   2, I=   1, J= 120

 MAXIMUM STEPSIZE WHICH MEETS STABILITY CRITERION OF THE DISPERSION TERM
 =  20.29    (WHEN MIN. R.F.=1)  AT K=   1, I=   1, J=  31
     1 CALLS TO GCG PACKAGE FOR TRANSPORT TIME STEP   5 IN FLOW TIME STEP 110 STRESS PERIOD   1
     5 TOTAL ITERATIONS
  MAXIMUM CONCENTRATION CHANGES FOR EACH ITERATION:
  MAX. CHANGE LAYER,ROW,COL MAX. CHANGE LAYER,ROW,COL MAX. CHANGE LAYER,ROW,COL MAX. CHANGE LAYER,ROW,COL MAX. CHANGE LAYER,ROW,COL
 ------------------------------------------------------------------------------------------------------------------------------------
   0.2183E-01 (  2,  1, 78)  0.5011E-03 (  2,  1, 76)  0.1385E-04 (  3,  1, 76)  0.3930E-06 (  3,  1, 74)  0.9292E-08 (  3,  1, 54)


                                          ================================================
                                                         FROM TIME =   1100.0     TO    1110.0    

 
 SOLVING FOR HEAD 
 FLOW MODEL IS TRANSIENT
 FLOW MODEL CONTAINS CONSTANT-HEAD CELLS


 MAXIMUM STEPSIZE DURING WHICH ANY PARTICLE CANNOT MOVE MORE THAN ONE CELL
 =  5.208    (WHEN MIN. R.F.=1)  AT K=   4, I=   1, J=  50

 MAXIMUM STEPSIZE WHICH MEETS STABILITY CRITERION OF THE ADVECTION TERM
 (FOR PURE FINITE-DIFFERENCE OPTION, MIXELM=0) 
 =  3.123    (WHEN MIN. R.F.=1)  AT K=   2, I=   1, J=  43


 TOTAL NUMBER OF POINT SOURCES/SINKS PRESENT IN THE FLOW MODEL =    62

 MAXIMUM STEPSIZE WHICH MEETS STABILITY CRITERION OF THE SINK & SOURCE TERM
 =  72.61    (WHEN MIN. R.F.=1)  AT K=   2, I=   1, J= 120

 MAXIMUM STEPSIZE WHICH MEETS STABILITY CRITERION OF THE DISPERSION TERM
 =  20.29    (WHEN MIN. R.F.=1)  AT K=   1, I=   1, J=  31


     1 CALLS TO GCG PACKAGE FOR TRANSPORT TIME STEP   1 IN FLOW TIME STEP 111 STRESS PERIOD   1
     6 TOTAL ITERATIONS

 NO OUTPUT CONTROL FOR STRESS PERIOD    1   TIME STEP 111
 
 SOLVING FOR HEAD 
 FLOW MODEL IS TRANSIENT
 FLOW MODEL CONTAINS CONSTANT-HEAD CELLS


 MAXIMUM STEPSIZE DURING WHICH ANY PARTICLE CANNOT MOVE MORE THAN ONE CELL
 =  5.176    (WHEN MIN. R.F.=1)  AT K=   4, I=   1, J=  50

 MAXIMUM STEPSIZE WHICH MEETS STABILITY CRITERION OF THE ADVECTION TERM
 (FOR PURE FINITE-DIFFERENCE OPTION, MIXELM=0) 
 =  3.016    (WHEN MIN. R.F.=1)  AT K=   2, I=   1, J=  76


 TOTAL NUMBER OF POINT SOURCES/SINKS PRESENT IN THE FLOW MODEL =    62

 MAXIMUM STEPSIZE WHICH MEETS STABILITY CRITERION OF THE SINK & SOURCE TERM
 =  70.85    (WHEN MIN. R.F.=1)  AT K=   2, I=   1, J= 120

 MAXIMUM STEPSIZE WHICH MEETS STABILITY CRITERION OF THE DISPERSION TERM
 =  20.29    (WHEN MIN. R.F.=1)  AT K=   1, I=   1, J=  31
     1 CALLS TO GCG PACKAGE FOR TRANSPORT TIME STEP   2 IN FLOW TIME STEP 111 STRESS PERIOD   1
     6 TOTAL ITERATIONS
 
 SOLVING FOR HEAD 
 FLOW MODEL IS TRANSIENT
 FLOW MODEL CONTAINS CONSTANT-HEAD CELLS


 MAXIMUM STEPSIZE DURING WHICH ANY PARTICLE CANNOT MOVE MORE THAN ONE CELL
 =  5.132    (WHEN MIN. R.F.=1)  AT K=   3, I=   1, J=  76

 MAXIMUM STEPSIZE WHICH MEETS STABILITY CRITERION OF THE ADVECTION TERM
 (FOR PURE FINITE-DIFFERENCE OPTION, MIXELM=0) 
 =  2.913    (WHEN MIN. R.F.=1)  AT K=   2, I=   1, J=  76


 TOTAL NUMBER OF POINT SOURCES/SINKS PRESENT IN THE FLOW MODEL =    62

 MAXIMUM STEPSIZE WHICH MEETS STABILITY CRITERION OF THE SINK & SOURCE TERM
 =  70.57    (WHEN MIN. R.F.=1)  AT K=   2, I=   1, J= 120

 MAXIMUM STEPSIZE WHICH MEETS STABILITY CRITERION OF THE DISPERSION TERM
 =  20.29    (WHEN MIN. R.F.=1)  AT K=   1, I=   1, J=  31
     1 CALLS TO GCG PACKAGE FOR TRANSPORT TIME STEP   3 IN FLOW TIME STEP 111 STRESS PERIOD   1
     6 TOTAL ITERATIONS
 
 SOLVING FOR HEAD 
 FLOW MODEL IS TRANSIENT
 FLOW MODEL CONTAINS CONSTANT-HEAD CELLS


 MAXIMUM STEPSIZE DURING WHICH ANY PARTICLE CANNOT MOVE MORE THAN ONE CELL
 =  5.272    (WHEN MIN. R.F.=1)  AT K=   4, I=   1, J=  50

 MAXIMUM STEPSIZE WHICH MEETS STABILITY CRITERION OF THE ADVECTION TERM
 (FOR PURE FINITE-DIFFERENCE OPTION, MIXELM=0) 
 =  2.921    (WHEN MIN. R.F.=1)  AT K=   2, I=   1, J=  76


 TOTAL NUMBER OF POINT SOURCES/SINKS PRESENT IN THE FLOW MODEL =    62

 MAXIMUM STEPSIZE WHICH MEETS STABILITY CRITERION OF THE SINK & SOURCE TERM
 =  70.81    (WHEN MIN. R.F.=1)  AT K=   2, I=   1, J= 120

 MAXIMUM STEPSIZE WHICH MEETS STABILITY CRITERION OF THE DISPERSION TERM
 =  20.29    (WHEN MIN. R.F.=1)  AT K=   1, I=   1, J=  31
     1 CALLS TO GCG PACKAGE FOR TRANSPORT TIME STEP   4 IN FLOW TIME STEP 111 STRESS PERIOD   1
     6 TOTAL ITERATIONS
 
 SOLVING FOR HEAD 
 FLOW MODEL IS TRANSIENT
 FLOW MODEL CONTAINS CONSTANT-HEAD CELLS


 MAXIMUM STEPSIZE DURING WHICH ANY PARTICLE CANNOT MOVE MORE THAN ONE CELL
 =  5.321    (WHEN MIN. R.F.=1)  AT K=   5, I=   1, J=  50

 MAXIMUM STEPSIZE WHICH MEETS STABILITY CRITERION OF THE ADVECTION TERM
 (FOR PURE FINITE-DIFFERENCE OPTION, MIXELM=0) 
 =  3.028    (WHEN MIN. R.F.=1)  AT K=   2, I=   1, J=  76


 TOTAL NUMBER OF POINT SOURCES/SINKS PRESENT IN THE FLOW MODEL =    62

 MAXIMUM STEPSIZE WHICH MEETS STABILITY CRITERION OF THE SINK & SOURCE TERM
 =  69.70    (WHEN MIN. R.F.=1)  AT K=   2, I=   1, J= 120

 MAXIMUM STEPSIZE WHICH MEETS STABILITY CRITERION OF THE DISPERSION TERM
 =  20.29    (WHEN MIN. R.F.=1)  AT K=   1, I=   1, J=  31
     1 CALLS TO GCG PACKAGE FOR TRANSPORT TIME STEP   5 IN FLOW TIME STEP 111 STRESS PERIOD   1
     4 TOTAL ITERATIONS
  MAXIMUM CONCENTRATION CHANGES FOR EACH ITERATION:
  MAX. CHANGE LAYER,ROW,COL MAX. CHANGE LAYER,ROW,COL MAX. CHANGE LAYER,ROW,COL MAX. CHANGE LAYER,ROW,COL MAX. CHANGE LAYER,ROW,COL
 ------------------------------------------------------------------------------------------------------------------------------------
   0.1669E-01 (  2,  1, 77)  0.2144E-03 (  2,  1, 75)  0.5167E-05 (  3,  1, 75)  0.8428E-07 (  3,  1, 78)


                                          ================================================
                                                         FROM TIME =   1110.0     TO    1120.0    

 
 SOLVING FOR HEAD 
 FLOW MODEL IS TRANSIENT
 FLOW MODEL CONTAINS CONSTANT-HEAD CELLS


 MAXIMUM STEPSIZE DURING WHICH ANY PARTICLE CANNOT MOVE MORE THAN ONE CELL
 =  5.347    (WHEN MIN. R.F.=1)  AT K=   5, I=   1, J=  50

 MAXIMUM STEPSIZE WHICH MEETS STABILITY CRITERION OF THE ADVECTION TERM
 (FOR PURE FINITE-DIFFERENCE OPTION, MIXELM=0) 
 =  3.109    (WHEN MIN. R.F.=1)  AT K=   2, I=   1, J=  44


 TOTAL NUMBER OF POINT SOURCES/SINKS PRESENT IN THE FLOW MODEL =    62

 MAXIMUM STEPSIZE WHICH MEETS STABILITY CRITERION OF THE SINK & SOURCE TERM
 =  73.21    (WHEN MIN. R.F.=1)  AT K=   2, I=   1, J= 120

 MAXIMUM STEPSIZE WHICH MEETS STABILITY CRITERION OF THE DISPERSION TERM
 =  20.29    (WHEN MIN. R.F.=1)  AT K=   1, I=   1, J=  31


     1 CALLS TO GCG PACKAGE FOR TRANSPORT TIME STEP   1 IN FLOW TIME STEP 112 STRESS PERIOD   1
     6 TOTAL ITERATIONS

 NO OUTPUT CONTROL FOR STRESS PERIOD    1   TIME STEP 112
 
 SOLVING FOR HEAD 
 FLOW MODEL IS TRANSIENT
 FLOW MODEL CONTAINS CONSTANT-HEAD CELLS


 MAXIMUM STEPSIZE DURING WHICH ANY PARTICLE CANNOT MOVE MORE THAN ONE CELL
 =  5.435    (WHEN MIN. R.F.=1)  AT K=   5, I=   1, J=  50

 MAXIMUM STEPSIZE WHICH MEETS STABILITY CRITERION OF THE ADVECTION TERM
 (FOR PURE FINITE-DIFFERENCE OPTION, MIXELM=0) 
 =  3.384    (WHEN MIN. R.F.=1)  AT K=   2, I=   1, J=  44


 TOTAL NUMBER OF POINT SOURCES/SINKS PRESENT IN THE FLOW MODEL =    62

 MAXIMUM STEPSIZE WHICH MEETS STABILITY CRITERION OF THE SINK & SOURCE TERM
 =  71.36    (WHEN MIN. R.F.=1)  AT K=   2, I=   1, J= 120

 MAXIMUM STEPSIZE WHICH MEETS STABILITY CRITERION OF THE DISPERSION TERM
 =  20.29    (WHEN MIN. R.F.=1)  AT K=   1, I=   1, J=  31
     1 CALLS TO GCG PACKAGE FOR TRANSPORT TIME STEP   2 IN FLOW TIME STEP 112 STRESS PERIOD   1
     6 TOTAL ITERATIONS
 
 SOLVING FOR HEAD 
 FLOW MODEL IS TRANSIENT
 FLOW MODEL CONTAINS CONSTANT-HEAD CELLS


 MAXIMUM STEPSIZE DURING WHICH ANY PARTICLE CANNOT MOVE MORE THAN ONE CELL
 =  5.483    (WHEN MIN. R.F.=1)  AT K=   6, I=   1, J=  50

 MAXIMUM STEPSIZE WHICH MEETS STABILITY CRITERION OF THE ADVECTION TERM
 (FOR PURE FINITE-DIFFERENCE OPTION, MIXELM=0) 
 =  3.196    (WHEN MIN. R.F.=1)  AT K=   2, I=   1, J=  45


 TOTAL NUMBER OF POINT SOURCES/SINKS PRESENT IN THE FLOW MODEL =    62

 MAXIMUM STEPSIZE WHICH MEETS STABILITY CRITERION OF THE SINK & SOURCE TERM
 =  71.35    (WHEN MIN. R.F.=1)  AT K=   2, I=   1, J= 120

 MAXIMUM STEPSIZE WHICH MEETS STABILITY CRITERION OF THE DISPERSION TERM
 =  20.29    (WHEN MIN. R.F.=1)  AT K=   1, I=   1, J=  31
     1 CALLS TO GCG PACKAGE FOR TRANSPORT TIME STEP   3 IN FLOW TIME STEP 112 STRESS PERIOD   1
     6 TOTAL ITERATIONS
 
 SOLVING FOR HEAD 
 FLOW MODEL IS TRANSIENT
 FLOW MODEL CONTAINS CONSTANT-HEAD CELLS


 MAXIMUM STEPSIZE DURING WHICH ANY PARTICLE CANNOT MOVE MORE THAN ONE CELL
 =  5.543    (WHEN MIN. R.F.=1)  AT K=   3, I=   1, J=  75

 MAXIMUM STEPSIZE WHICH MEETS STABILITY CRITERION OF THE ADVECTION TERM
 (FOR PURE FINITE-DIFFERENCE OPTION, MIXELM=0) 
 =  3.079    (WHEN MIN. R.F.=1)  AT K=   2, I=   1, J=  45


 TOTAL NUMBER OF POINT SOURCES/SINKS PRESENT IN THE FLOW MODEL =    62

 MAXIMUM STEPSIZE WHICH MEETS STABILITY CRITERION OF THE SINK & SOURCE TERM
 =  70.48    (WHEN MIN. R.F.=1)  AT K=   2, I=   1, J= 120

 MAXIMUM STEPSIZE WHICH MEETS STABILITY CRITERION OF THE DISPERSION TERM
 =  20.29    (WHEN MIN. R.F.=1)  AT K=   1, I=   1, J=  31
     1 CALLS TO GCG PACKAGE FOR TRANSPORT TIME STEP   4 IN FLOW TIME STEP 112 STRESS PERIOD   1
     6 TOTAL ITERATIONS
 
 SOLVING FOR HEAD 
 FLOW MODEL IS TRANSIENT
 FLOW MODEL CONTAINS CONSTANT-HEAD CELLS


 MAXIMUM STEPSIZE DURING WHICH ANY PARTICLE CANNOT MOVE MORE THAN ONE CELL
 =  5.585    (WHEN MIN. R.F.=1)  AT K=   7, I=   1, J=  50

 MAXIMUM STEPSIZE WHICH MEETS STABILITY CRITERION OF THE ADVECTION TERM
 (FOR PURE FINITE-DIFFERENCE OPTION, MIXELM=0) 
 =  3.112    (WHEN MIN. R.F.=1)  AT K=   2, I=   1, J=  45


 TOTAL NUMBER OF POINT SOURCES/SINKS PRESENT IN THE FLOW MODEL =    62

 MAXIMUM STEPSIZE WHICH MEETS STABILITY CRITERION OF THE SINK & SOURCE TERM
 =  67.65    (WHEN MIN. R.F.=1)  AT K=   2, I=   1, J= 120

 MAXIMUM STEPSIZE WHICH MEETS STABILITY CRITERION OF THE DISPERSION TERM
 =  20.29    (WHEN MIN. R.F.=1)  AT K=   1, I=   1, J=  31
     1 CALLS TO GCG PACKAGE FOR TRANSPORT TIME STEP   5 IN FLOW TIME STEP 112 STRESS PERIOD   1
     4 TOTAL ITERATIONS
  MAXIMUM CONCENTRATION CHANGES FOR EACH ITERATION:
  MAX. CHANGE LAYER,ROW,COL MAX. CHANGE LAYER,ROW,COL MAX. CHANGE LAYER,ROW,COL MAX. CHANGE LAYER,ROW,COL MAX. CHANGE LAYER,ROW,COL
 ------------------------------------------------------------------------------------------------------------------------------------
   0.7831E-02 (  2,  1, 84)  0.5643E-04 (  2,  1, 76)  0.5510E-06 (  2,  1, 77)  0.7106E-08 (  3,  1, 48)


                                          ================================================
                                                         FROM TIME =   1120.0     TO    1130.0    

 
 SOLVING FOR HEAD 
 FLOW MODEL IS TRANSIENT
 FLOW MODEL CONTAINS CONSTANT-HEAD CELLS


 MAXIMUM STEPSIZE DURING WHICH ANY PARTICLE CANNOT MOVE MORE THAN ONE CELL
 =  5.592    (WHEN MIN. R.F.=1)  AT K=   7, I=   1, J=  50

 MAXIMUM STEPSIZE WHICH MEETS STABILITY CRITERION OF THE ADVECTION TERM
 (FOR PURE FINITE-DIFFERENCE OPTION, MIXELM=0) 
 =  3.131    (WHEN MIN. R.F.=1)  AT K=   2, I=   1, J=  45


 TOTAL NUMBER OF POINT SOURCES/SINKS PRESENT IN THE FLOW MODEL =    62

 MAXIMUM STEPSIZE WHICH MEETS STABILITY CRITERION OF THE SINK & SOURCE TERM
 =  72.19    (WHEN MIN. R.F.=1)  AT K=   2, I=   1, J= 120

 MAXIMUM STEPSIZE WHICH MEETS STABILITY CRITERION OF THE DISPERSION TERM
 =  20.29    (WHEN MIN. R.F.=1)  AT K=   1, I=   1, J=  31


     1 CALLS TO GCG PACKAGE FOR TRANSPORT TIME STEP   1 IN FLOW TIME STEP 113 STRESS PERIOD   1
     6 TOTAL ITERATIONS

 NO OUTPUT CONTROL FOR STRESS PERIOD    1   TIME STEP 113
 
 SOLVING FOR HEAD 
 FLOW MODEL IS TRANSIENT
 FLOW MODEL CONTAINS CONSTANT-HEAD CELLS


 MAXIMUM STEPSIZE DURING WHICH ANY PARTICLE CANNOT MOVE MORE THAN ONE CELL
 =  5.650    (WHEN MIN. R.F.=1)  AT K=   7, I=   1, J=  50

 MAXIMUM STEPSIZE WHICH MEETS STABILITY CRITERION OF THE ADVECTION TERM
 (FOR PURE FINITE-DIFFERENCE OPTION, MIXELM=0) 
 =  3.281    (WHEN MIN. R.F.=1)  AT K=   2, I=   1, J=  75


 TOTAL NUMBER OF POINT SOURCES/SINKS PRESENT IN THE FLOW MODEL =    62

 MAXIMUM STEPSIZE WHICH MEETS STABILITY CRITERION OF THE SINK & SOURCE TERM
 =  69.34    (WHEN MIN. R.F.=1)  AT K=   2, I=   1, J= 120

 MAXIMUM STEPSIZE WHICH MEETS STABILITY CRITERION OF THE DISPERSION TERM
 =  20.29    (WHEN MIN. R.F.=1)  AT K=   1, I=   1, J=  31
     1 CALLS TO GCG PACKAGE FOR TRANSPORT TIME STEP   2 IN FLOW TIME STEP 113 STRESS PERIOD   1
     6 TOTAL ITERATIONS
 
 SOLVING FOR HEAD 
 FLOW MODEL IS TRANSIENT
 FLOW MODEL CONTAINS CONSTANT-HEAD CELLS


 MAXIMUM STEPSIZE DURING WHICH ANY PARTICLE CANNOT MOVE MORE THAN ONE CELL
 =  5.685    (WHEN MIN. R.F.=1)  AT K=   8, I=   1, J=  50

 MAXIMUM STEPSIZE WHICH MEETS STABILITY CRITERION OF THE ADVECTION TERM
 (FOR PURE FINITE-DIFFERENCE OPTION, MIXELM=0) 
 =  3.235    (WHEN MIN. R.F.=1)  AT K=   2, I=   1, J=  82


 TOTAL NUMBER OF POINT SOURCES/SINKS PRESENT IN THE FLOW MODEL =    62

 MAXIMUM STEPSIZE WHICH MEETS STABILITY CRITERION OF THE SINK & SOURCE TERM
 =  69.16    (WHEN MIN. R.F.=1)  AT K=   2, I=   1, J= 120

 MAXIMUM STEPSIZE WHICH MEETS STABILITY CRITERION OF THE DISPERSION TERM
 =  20.29    (WHEN MIN. R.F.=1)  AT K=   1, I=   1, J=  31
     1 CALLS TO GCG PACKAGE FOR TRANSPORT TIME STEP   3 IN FLOW TIME STEP 113 STRESS PERIOD   1
     6 TOTAL ITERATIONS
 
 SOLVING FOR HEAD 
 FLOW MODEL IS TRANSIENT
 FLOW MODEL CONTAINS CONSTANT-HEAD CELLS


 MAXIMUM STEPSIZE DURING WHICH ANY PARTICLE CANNOT MOVE MORE THAN ONE CELL
 =  5.723    (WHEN MIN. R.F.=1)  AT K=   8, I=   1, J=  50

 MAXIMUM STEPSIZE WHICH MEETS STABILITY CRITERION OF THE ADVECTION TERM
 (FOR PURE FINITE-DIFFERENCE OPTION, MIXELM=0) 
 =  3.286    (WHEN MIN. R.F.=1)  AT K=   2, I=   1, J=  46


 TOTAL NUMBER OF POINT SOURCES/SINKS PRESENT IN THE FLOW MODEL =    62

 MAXIMUM STEPSIZE WHICH MEETS STABILITY CRITERION OF THE SINK & SOURCE TERM
 =  67.56    (WHEN MIN. R.F.=1)  AT K=   2, I=   1, J= 120

 MAXIMUM STEPSIZE WHICH MEETS STABILITY CRITERION OF THE DISPERSION TERM
 =  20.29    (WHEN MIN. R.F.=1)  AT K=   1, I=   1, J=  31
     1 CALLS TO GCG PACKAGE FOR TRANSPORT TIME STEP   4 IN FLOW TIME STEP 113 STRESS PERIOD   1
     6 TOTAL ITERATIONS
 
 SOLVING FOR HEAD 
 FLOW MODEL IS TRANSIENT
 FLOW MODEL CONTAINS CONSTANT-HEAD CELLS


 MAXIMUM STEPSIZE DURING WHICH ANY PARTICLE CANNOT MOVE MORE THAN ONE CELL
 =  5.794    (WHEN MIN. R.F.=1)  AT K=   8, I=   1, J=  50

 MAXIMUM STEPSIZE WHICH MEETS STABILITY CRITERION OF THE ADVECTION TERM
 (FOR PURE FINITE-DIFFERENCE OPTION, MIXELM=0) 
 =  3.140    (WHEN MIN. R.F.=1)  AT K=   2, I=   1, J=  81


 TOTAL NUMBER OF POINT SOURCES/SINKS PRESENT IN THE FLOW MODEL =    62

 MAXIMUM STEPSIZE WHICH MEETS STABILITY CRITERION OF THE SINK & SOURCE TERM
 =  64.50    (WHEN MIN. R.F.=1)  AT K=   2, I=   1, J= 120

 MAXIMUM STEPSIZE WHICH MEETS STABILITY CRITERION OF THE DISPERSION TERM
 =  20.29    (WHEN MIN. R.F.=1)  AT K=   1, I=   1, J=  31
     1 CALLS TO GCG PACKAGE FOR TRANSPORT TIME STEP   5 IN FLOW TIME STEP 113 STRESS PERIOD   1
     4 TOTAL ITERATIONS
  MAXIMUM CONCENTRATION CHANGES FOR EACH ITERATION:
  MAX. CHANGE LAYER,ROW,COL MAX. CHANGE LAYER,ROW,COL MAX. CHANGE LAYER,ROW,COL MAX. CHANGE LAYER,ROW,COL MAX. CHANGE LAYER,ROW,COL
 ------------------------------------------------------------------------------------------------------------------------------------
   0.7055E-02 (  2,  1, 83)  0.5145E-04 (  2,  1, 74)  0.4643E-06 (  3,  1, 81)  0.4003E-08 (  3,  1, 73)


                                          ================================================
                                                         FROM TIME =   1130.0     TO    1140.0    

 
 SOLVING FOR HEAD 
 FLOW MODEL IS TRANSIENT
 FLOW MODEL CONTAINS CONSTANT-HEAD CELLS


 MAXIMUM STEPSIZE DURING WHICH ANY PARTICLE CANNOT MOVE MORE THAN ONE CELL
 =  5.807    (WHEN MIN. R.F.=1)  AT K=   8, I=   1, J=  50

 MAXIMUM STEPSIZE WHICH MEETS STABILITY CRITERION OF THE ADVECTION TERM
 (FOR PURE FINITE-DIFFERENCE OPTION, MIXELM=0) 
 =  3.082    (WHEN MIN. R.F.=1)  AT K=   2, I=   1, J=  81


 TOTAL NUMBER OF POINT SOURCES/SINKS PRESENT IN THE FLOW MODEL =    62

 MAXIMUM STEPSIZE WHICH MEETS STABILITY CRITERION OF THE SINK & SOURCE TERM
 =  68.58    (WHEN MIN. R.F.=1)  AT K=   2, I=   1, J= 120

 MAXIMUM STEPSIZE WHICH MEETS STABILITY CRITERION OF THE DISPERSION TERM
 =  20.29    (WHEN MIN. R.F.=1)  AT K=   1, I=   1, J=  31


     1 CALLS TO GCG PACKAGE FOR TRANSPORT TIME STEP   1 IN FLOW TIME STEP 114 STRESS PERIOD   1
     6 TOTAL ITERATIONS

 NO OUTPUT CONTROL FOR STRESS PERIOD    1   TIME STEP 114
 
 SOLVING FOR HEAD 
 FLOW MODEL IS TRANSIENT
 FLOW MODEL CONTAINS CONSTANT-HEAD CELLS


 MAXIMUM STEPSIZE DURING WHICH ANY PARTICLE CANNOT MOVE MORE THAN ONE CELL
 =  5.689    (WHEN MIN. R.F.=1)  AT K=   2, I=   1, J=  82

 MAXIMUM STEPSIZE WHICH MEETS STABILITY CRITERION OF THE ADVECTION TERM
 (FOR PURE FINITE-DIFFERENCE OPTION, MIXELM=0) 
 =  2.855    (WHEN MIN. R.F.=1)  AT K=   2, I=   1, J=  81


 TOTAL NUMBER OF POINT SOURCES/SINKS PRESENT IN THE FLOW MODEL =    62

 MAXIMUM STEPSIZE WHICH MEETS STABILITY CRITERION OF THE SINK & SOURCE TERM
 =  65.96    (WHEN MIN. R.F.=1)  AT K=   2, I=   1, J= 120

 MAXIMUM STEPSIZE WHICH MEETS STABILITY CRITERION OF THE DISPERSION TERM
 =  20.29    (WHEN MIN. R.F.=1)  AT K=   1, I=   1, J=  31
     1 CALLS TO GCG PACKAGE FOR TRANSPORT TIME STEP   2 IN FLOW TIME STEP 114 STRESS PERIOD   1
     6 TOTAL ITERATIONS
 
 SOLVING FOR HEAD 
 FLOW MODEL IS TRANSIENT
 FLOW MODEL CONTAINS CONSTANT-HEAD CELLS


 MAXIMUM STEPSIZE DURING WHICH ANY PARTICLE CANNOT MOVE MORE THAN ONE CELL
 =  5.455    (WHEN MIN. R.F.=1)  AT K=   2, I=   1, J=  82

 MAXIMUM STEPSIZE WHICH MEETS STABILITY CRITERION OF THE ADVECTION TERM
 (FOR PURE FINITE-DIFFERENCE OPTION, MIXELM=0) 
 =  2.816    (WHEN MIN. R.F.=1)  AT K=   2, I=   1, J=  81


 TOTAL NUMBER OF POINT SOURCES/SINKS PRESENT IN THE FLOW MODEL =    62

 MAXIMUM STEPSIZE WHICH MEETS STABILITY CRITERION OF THE SINK & SOURCE TERM
 =  65.36    (WHEN MIN. R.F.=1)  AT K=   2, I=   1, J= 120

 MAXIMUM STEPSIZE WHICH MEETS STABILITY CRITERION OF THE DISPERSION TERM
 =  20.29    (WHEN MIN. R.F.=1)  AT K=   1, I=   1, J=  31
     1 CALLS TO GCG PACKAGE FOR TRANSPORT TIME STEP   3 IN FLOW TIME STEP 114 STRESS PERIOD   1
     6 TOTAL ITERATIONS
 
 SOLVING FOR HEAD 
 FLOW MODEL IS TRANSIENT
 FLOW MODEL CONTAINS CONSTANT-HEAD CELLS


 MAXIMUM STEPSIZE DURING WHICH ANY PARTICLE CANNOT MOVE MORE THAN ONE CELL
 =  5.337    (WHEN MIN. R.F.=1)  AT K=   2, I=   1, J=  82

 MAXIMUM STEPSIZE WHICH MEETS STABILITY CRITERION OF THE ADVECTION TERM
 (FOR PURE FINITE-DIFFERENCE OPTION, MIXELM=0) 
 =  2.959    (WHEN MIN. R.F.=1)  AT K=   2, I=   1, J=  81


 TOTAL NUMBER OF POINT SOURCES/SINKS PRESENT IN THE FLOW MODEL =    62

 MAXIMUM STEPSIZE WHICH MEETS STABILITY CRITERION OF THE SINK & SOURCE TERM
 =  65.18    (WHEN MIN. R.F.=1)  AT K=   2, I=   1, J= 120

 MAXIMUM STEPSIZE WHICH MEETS STABILITY CRITERION OF THE DISPERSION TERM
 =  20.29    (WHEN MIN. R.F.=1)  AT K=   1, I=   1, J=  31
     1 CALLS TO GCG PACKAGE FOR TRANSPORT TIME STEP   4 IN FLOW TIME STEP 114 STRESS PERIOD   1
     6 TOTAL ITERATIONS
 
 SOLVING FOR HEAD 
 FLOW MODEL IS TRANSIENT
 FLOW MODEL CONTAINS CONSTANT-HEAD CELLS


 MAXIMUM STEPSIZE DURING WHICH ANY PARTICLE CANNOT MOVE MORE THAN ONE CELL
 =  5.319    (WHEN MIN. R.F.=1)  AT K=   2, I=   1, J=  82

 MAXIMUM STEPSIZE WHICH MEETS STABILITY CRITERION OF THE ADVECTION TERM
 (FOR PURE FINITE-DIFFERENCE OPTION, MIXELM=0) 
 =  2.988    (WHEN MIN. R.F.=1)  AT K=   2, I=   1, J=  80


 TOTAL NUMBER OF POINT SOURCES/SINKS PRESENT IN THE FLOW MODEL =    62

 MAXIMUM STEPSIZE WHICH MEETS STABILITY CRITERION OF THE SINK & SOURCE TERM
 =  63.81    (WHEN MIN. R.F.=1)  AT K=   2, I=   1, J= 120

 MAXIMUM STEPSIZE WHICH MEETS STABILITY CRITERION OF THE DISPERSION TERM
 =  20.29    (WHEN MIN. R.F.=1)  AT K=   1, I=   1, J=  31
     1 CALLS TO GCG PACKAGE FOR TRANSPORT TIME STEP   5 IN FLOW TIME STEP 114 STRESS PERIOD   1
     5 TOTAL ITERATIONS
  MAXIMUM CONCENTRATION CHANGES FOR EACH ITERATION:
  MAX. CHANGE LAYER,ROW,COL MAX. CHANGE LAYER,ROW,COL MAX. CHANGE LAYER,ROW,COL MAX. CHANGE LAYER,ROW,COL MAX. CHANGE LAYER,ROW,COL
 ------------------------------------------------------------------------------------------------------------------------------------
   0.1802E-01 (  2,  1, 82)  0.3157E-03 (  2,  1, 80)  0.8251E-05 (  3,  1, 80)  0.1762E-06 (  4,  1, 80)  0.3798E-08 (  4,  1, 81)


                                          ================================================
                                                         FROM TIME =   1140.0     TO    1150.0    

 
 SOLVING FOR HEAD 
 FLOW MODEL IS TRANSIENT
 FLOW MODEL CONTAINS CONSTANT-HEAD CELLS


 MAXIMUM STEPSIZE DURING WHICH ANY PARTICLE CANNOT MOVE MORE THAN ONE CELL
 =  5.263    (WHEN MIN. R.F.=1)  AT K=   3, I=   1, J=  80

 MAXIMUM STEPSIZE WHICH MEETS STABILITY CRITERION OF THE ADVECTION TERM
 (FOR PURE FINITE-DIFFERENCE OPTION, MIXELM=0) 
 =  2.872    (WHEN MIN. R.F.=1)  AT K=   2, I=   1, J=  80


 TOTAL NUMBER OF POINT SOURCES/SINKS PRESENT IN THE FLOW MODEL =    62

 MAXIMUM STEPSIZE WHICH MEETS STABILITY CRITERION OF THE SINK & SOURCE TERM
 =  66.05    (WHEN MIN. R.F.=1)  AT K=   2, I=   1, J= 120

 MAXIMUM STEPSIZE WHICH MEETS STABILITY CRITERION OF THE DISPERSION TERM
 =  20.29    (WHEN MIN. R.F.=1)  AT K=   1, I=   1, J=  31


     1 CALLS TO GCG PACKAGE FOR TRANSPORT TIME STEP   1 IN FLOW TIME STEP 115 STRESS PERIOD   1
     6 TOTAL ITERATIONS

 NO OUTPUT CONTROL FOR STRESS PERIOD    1   TIME STEP 115
 
 SOLVING FOR HEAD 
 FLOW MODEL IS TRANSIENT
 FLOW MODEL CONTAINS CONSTANT-HEAD CELLS


 MAXIMUM STEPSIZE DURING WHICH ANY PARTICLE CANNOT MOVE MORE THAN ONE CELL
 =  5.129    (WHEN MIN. R.F.=1)  AT K=   3, I=   1, J=  80

 MAXIMUM STEPSIZE WHICH MEETS STABILITY CRITERION OF THE ADVECTION TERM
 (FOR PURE FINITE-DIFFERENCE OPTION, MIXELM=0) 
 =  2.735    (WHEN MIN. R.F.=1)  AT K=   2, I=   1, J=  80


 TOTAL NUMBER OF POINT SOURCES/SINKS PRESENT IN THE FLOW MODEL =    62

 MAXIMUM STEPSIZE WHICH MEETS STABILITY CRITERION OF THE SINK & SOURCE TERM
 =  63.73    (WHEN MIN. R.F.=1)  AT K=   2, I=   1, J= 120

 MAXIMUM STEPSIZE WHICH MEETS STABILITY CRITERION OF THE DISPERSION TERM
 =  20.29    (WHEN MIN. R.F.=1)  AT K=   1, I=   1, J=  31
     1 CALLS TO GCG PACKAGE FOR TRANSPORT TIME STEP   2 IN FLOW TIME STEP 115 STRESS PERIOD   1
     6 TOTAL ITERATIONS
 
 SOLVING FOR HEAD 
 FLOW MODEL IS TRANSIENT
 FLOW MODEL CONTAINS CONSTANT-HEAD CELLS


 MAXIMUM STEPSIZE DURING WHICH ANY PARTICLE CANNOT MOVE MORE THAN ONE CELL
 =  5.282    (WHEN MIN. R.F.=1)  AT K=   3, I=   1, J=  80

 MAXIMUM STEPSIZE WHICH MEETS STABILITY CRITERION OF THE ADVECTION TERM
 (FOR PURE FINITE-DIFFERENCE OPTION, MIXELM=0) 
 =  2.724    (WHEN MIN. R.F.=1)  AT K=   2, I=   1, J=  80


 TOTAL NUMBER OF POINT SOURCES/SINKS PRESENT IN THE FLOW MODEL =    62

 MAXIMUM STEPSIZE WHICH MEETS STABILITY CRITERION OF THE SINK & SOURCE TERM
 =  63.73    (WHEN MIN. R.F.=1)  AT K=   2, I=   1, J= 120

 MAXIMUM STEPSIZE WHICH MEETS STABILITY CRITERION OF THE DISPERSION TERM
 =  20.29    (WHEN MIN. R.F.=1)  AT K=   1, I=   1, J=  31
     1 CALLS TO GCG PACKAGE FOR TRANSPORT TIME STEP   3 IN FLOW TIME STEP 115 STRESS PERIOD   1
     6 TOTAL ITERATIONS
 
 SOLVING FOR HEAD 
 FLOW MODEL IS TRANSIENT
 FLOW MODEL CONTAINS CONSTANT-HEAD CELLS


 MAXIMUM STEPSIZE DURING WHICH ANY PARTICLE CANNOT MOVE MORE THAN ONE CELL
 =  5.260    (WHEN MIN. R.F.=1)  AT K=   2, I=   1, J=  81

 MAXIMUM STEPSIZE WHICH MEETS STABILITY CRITERION OF THE ADVECTION TERM
 (FOR PURE FINITE-DIFFERENCE OPTION, MIXELM=0) 
 =  2.845    (WHEN MIN. R.F.=1)  AT K=   2, I=   1, J=  80


 TOTAL NUMBER OF POINT SOURCES/SINKS PRESENT IN THE FLOW MODEL =    62

 MAXIMUM STEPSIZE WHICH MEETS STABILITY CRITERION OF THE SINK & SOURCE TERM
 =  63.77    (WHEN MIN. R.F.=1)  AT K=   2, I=   1, J= 120

 MAXIMUM STEPSIZE WHICH MEETS STABILITY CRITERION OF THE DISPERSION TERM
 =  20.29    (WHEN MIN. R.F.=1)  AT K=   1, I=   1, J=  31
     1 CALLS TO GCG PACKAGE FOR TRANSPORT TIME STEP   4 IN FLOW TIME STEP 115 STRESS PERIOD   1
     5 TOTAL ITERATIONS
 
 SOLVING FOR HEAD 
 FLOW MODEL IS TRANSIENT
 FLOW MODEL CONTAINS CONSTANT-HEAD CELLS


 MAXIMUM STEPSIZE DURING WHICH ANY PARTICLE CANNOT MOVE MORE THAN ONE CELL
 =  5.250    (WHEN MIN. R.F.=1)  AT K=   2, I=   1, J=  81

 MAXIMUM STEPSIZE WHICH MEETS STABILITY CRITERION OF THE ADVECTION TERM
 (FOR PURE FINITE-DIFFERENCE OPTION, MIXELM=0) 
 =  3.146    (WHEN MIN. R.F.=1)  AT K=   2, I=   1, J=  79


 TOTAL NUMBER OF POINT SOURCES/SINKS PRESENT IN THE FLOW MODEL =    62

 MAXIMUM STEPSIZE WHICH MEETS STABILITY CRITERION OF THE SINK & SOURCE TERM
 =  63.49    (WHEN MIN. R.F.=1)  AT K=   2, I=   1, J= 120

 MAXIMUM STEPSIZE WHICH MEETS STABILITY CRITERION OF THE DISPERSION TERM
 =  20.29    (WHEN MIN. R.F.=1)  AT K=   1, I=   1, J=  31
     1 CALLS TO GCG PACKAGE FOR TRANSPORT TIME STEP   5 IN FLOW TIME STEP 115 STRESS PERIOD   1
     5 TOTAL ITERATIONS
  MAXIMUM CONCENTRATION CHANGES FOR EACH ITERATION:
  MAX. CHANGE LAYER,ROW,COL MAX. CHANGE LAYER,ROW,COL MAX. CHANGE LAYER,ROW,COL MAX. CHANGE LAYER,ROW,COL MAX. CHANGE LAYER,ROW,COL
 ------------------------------------------------------------------------------------------------------------------------------------
   0.2412E-01 (  2,  1, 81)  0.7003E-03 (  2,  1, 79)  0.2128E-04 (  3,  1, 79)  0.5193E-06 (  4,  1, 79)  0.1806E-07 (  3,  1, 44)


                                          ================================================
                                                         FROM TIME =   1150.0     TO    1160.0    

 
 SOLVING FOR HEAD 
 FLOW MODEL IS TRANSIENT
 FLOW MODEL CONTAINS CONSTANT-HEAD CELLS


 MAXIMUM STEPSIZE DURING WHICH ANY PARTICLE CANNOT MOVE MORE THAN ONE CELL
 =  5.257    (WHEN MIN. R.F.=1)  AT K=   3, I=   1, J=  72

 MAXIMUM STEPSIZE WHICH MEETS STABILITY CRITERION OF THE ADVECTION TERM
 (FOR PURE FINITE-DIFFERENCE OPTION, MIXELM=0) 
 =  2.968    (WHEN MIN. R.F.=1)  AT K=   2, I=   1, J=  79


 TOTAL NUMBER OF POINT SOURCES/SINKS PRESENT IN THE FLOW MODEL =    62

 MAXIMUM STEPSIZE WHICH MEETS STABILITY CRITERION OF THE SINK & SOURCE TERM
 =  65.35    (WHEN MIN. R.F.=1)  AT K=   2, I=   1, J= 120

 MAXIMUM STEPSIZE WHICH MEETS STABILITY CRITERION OF THE DISPERSION TERM
 =  20.29    (WHEN MIN. R.F.=1)  AT K=   1, I=   1, J=  31


     1 CALLS TO GCG PACKAGE FOR TRANSPORT TIME STEP   1 IN FLOW TIME STEP 116 STRESS PERIOD   1
     6 TOTAL ITERATIONS

 NO OUTPUT CONTROL FOR STRESS PERIOD    1   TIME STEP 116
 
 SOLVING FOR HEAD 
 FLOW MODEL IS TRANSIENT
 FLOW MODEL CONTAINS CONSTANT-HEAD CELLS


 MAXIMUM STEPSIZE DURING WHICH ANY PARTICLE CANNOT MOVE MORE THAN ONE CELL
 =  5.054    (WHEN MIN. R.F.=1)  AT K=   4, I=   1, J=  72

 MAXIMUM STEPSIZE WHICH MEETS STABILITY CRITERION OF THE ADVECTION TERM
 (FOR PURE FINITE-DIFFERENCE OPTION, MIXELM=0) 
 =  2.816    (WHEN MIN. R.F.=1)  AT K=   2, I=   1, J=  79


 TOTAL NUMBER OF POINT SOURCES/SINKS PRESENT IN THE FLOW MODEL =    62

 MAXIMUM STEPSIZE WHICH MEETS STABILITY CRITERION OF THE SINK & SOURCE TERM
 =  63.46    (WHEN MIN. R.F.=1)  AT K=   2, I=   1, J= 120

 MAXIMUM STEPSIZE WHICH MEETS STABILITY CRITERION OF THE DISPERSION TERM
 =  20.29    (WHEN MIN. R.F.=1)  AT K=   1, I=   1, J=  31
     1 CALLS TO GCG PACKAGE FOR TRANSPORT TIME STEP   2 IN FLOW TIME STEP 116 STRESS PERIOD   1
     6 TOTAL ITERATIONS
 
 SOLVING FOR HEAD 
 FLOW MODEL IS TRANSIENT
 FLOW MODEL CONTAINS CONSTANT-HEAD CELLS


 MAXIMUM STEPSIZE DURING WHICH ANY PARTICLE CANNOT MOVE MORE THAN ONE CELL
 =  4.881    (WHEN MIN. R.F.=1)  AT K=   4, I=   1, J=  72

 MAXIMUM STEPSIZE WHICH MEETS STABILITY CRITERION OF THE ADVECTION TERM
 (FOR PURE FINITE-DIFFERENCE OPTION, MIXELM=0) 
 =  2.812    (WHEN MIN. R.F.=1)  AT K=   2, I=   1, J=  79


 TOTAL NUMBER OF POINT SOURCES/SINKS PRESENT IN THE FLOW MODEL =    62

 MAXIMUM STEPSIZE WHICH MEETS STABILITY CRITERION OF THE SINK & SOURCE TERM
 =  63.76    (WHEN MIN. R.F.=1)  AT K=   2, I=   1, J= 120

 MAXIMUM STEPSIZE WHICH MEETS STABILITY CRITERION OF THE DISPERSION TERM
 =  20.29    (WHEN MIN. R.F.=1)  AT K=   1, I=   1, J=  31
     1 CALLS TO GCG PACKAGE FOR TRANSPORT TIME STEP   3 IN FLOW TIME STEP 116 STRESS PERIOD   1
     6 TOTAL ITERATIONS
 
 SOLVING FOR HEAD 
 FLOW MODEL IS TRANSIENT
 FLOW MODEL CONTAINS CONSTANT-HEAD CELLS


 MAXIMUM STEPSIZE DURING WHICH ANY PARTICLE CANNOT MOVE MORE THAN ONE CELL
 =  4.763    (WHEN MIN. R.F.=1)  AT K=   4, I=   1, J=  72

 MAXIMUM STEPSIZE WHICH MEETS STABILITY CRITERION OF THE ADVECTION TERM
 (FOR PURE FINITE-DIFFERENCE OPTION, MIXELM=0) 
 =  2.904    (WHEN MIN. R.F.=1)  AT K=   2, I=   1, J=  79


 TOTAL NUMBER OF POINT SOURCES/SINKS PRESENT IN THE FLOW MODEL =    62

 MAXIMUM STEPSIZE WHICH MEETS STABILITY CRITERION OF THE SINK & SOURCE TERM
 =  64.02    (WHEN MIN. R.F.=1)  AT K=   2, I=   1, J= 120

 MAXIMUM STEPSIZE WHICH MEETS STABILITY CRITERION OF THE DISPERSION TERM
 =  20.29    (WHEN MIN. R.F.=1)  AT K=   1, I=   1, J=  31
     1 CALLS TO GCG PACKAGE FOR TRANSPORT TIME STEP   4 IN FLOW TIME STEP 116 STRESS PERIOD   1
     6 TOTAL ITERATIONS
 
 SOLVING FOR HEAD 
 FLOW MODEL IS TRANSIENT
 FLOW MODEL CONTAINS CONSTANT-HEAD CELLS


 MAXIMUM STEPSIZE DURING WHICH ANY PARTICLE CANNOT MOVE MORE THAN ONE CELL
 =  4.692    (WHEN MIN. R.F.=1)  AT K=   4, I=   1, J=  72

 MAXIMUM STEPSIZE WHICH MEETS STABILITY CRITERION OF THE ADVECTION TERM
 (FOR PURE FINITE-DIFFERENCE OPTION, MIXELM=0) 
 =  2.953    (WHEN MIN. R.F.=1)  AT K=   2, I=   1, J=  41


 TOTAL NUMBER OF POINT SOURCES/SINKS PRESENT IN THE FLOW MODEL =    62

 MAXIMUM STEPSIZE WHICH MEETS STABILITY CRITERION OF THE SINK & SOURCE TERM
 =  63.28    (WHEN MIN. R.F.=1)  AT K=   2, I=   1, J= 120

 MAXIMUM STEPSIZE WHICH MEETS STABILITY CRITERION OF THE DISPERSION TERM
 =  20.29    (WHEN MIN. R.F.=1)  AT K=   1, I=   1, J=  31
     1 CALLS TO GCG PACKAGE FOR TRANSPORT TIME STEP   5 IN FLOW TIME STEP 116 STRESS PERIOD   1
     5 TOTAL ITERATIONS
  MAXIMUM CONCENTRATION CHANGES FOR EACH ITERATION:
  MAX. CHANGE LAYER,ROW,COL MAX. CHANGE LAYER,ROW,COL MAX. CHANGE LAYER,ROW,COL MAX. CHANGE LAYER,ROW,COL MAX. CHANGE LAYER,ROW,COL
 ------------------------------------------------------------------------------------------------------------------------------------
   0.1982E-01 (  2,  1, 80)  0.3936E-03 (  2,  1, 78)  0.9194E-05 (  3,  1, 78)  0.1860E-06 (  3,  1, 39)  0.7852E-08 (  3,  1, 45)


                                          ================================================
                                                         FROM TIME =   1160.0     TO    1170.0    

 
 SOLVING FOR HEAD 
 FLOW MODEL IS TRANSIENT
 FLOW MODEL CONTAINS CONSTANT-HEAD CELLS


 MAXIMUM STEPSIZE DURING WHICH ANY PARTICLE CANNOT MOVE MORE THAN ONE CELL
 =  4.670    (WHEN MIN. R.F.=1)  AT K=   4, I=   1, J=  72

 MAXIMUM STEPSIZE WHICH MEETS STABILITY CRITERION OF THE ADVECTION TERM
 (FOR PURE FINITE-DIFFERENCE OPTION, MIXELM=0) 
 =  2.970    (WHEN MIN. R.F.=1)  AT K=   2, I=   1, J=  41


 TOTAL NUMBER OF POINT SOURCES/SINKS PRESENT IN THE FLOW MODEL =    62

 MAXIMUM STEPSIZE WHICH MEETS STABILITY CRITERION OF THE SINK & SOURCE TERM
 =  65.89    (WHEN MIN. R.F.=1)  AT K=   2, I=   1, J= 120

 MAXIMUM STEPSIZE WHICH MEETS STABILITY CRITERION OF THE DISPERSION TERM
 =  20.29    (WHEN MIN. R.F.=1)  AT K=   1, I=   1, J=  31


     1 CALLS TO GCG PACKAGE FOR TRANSPORT TIME STEP   1 IN FLOW TIME STEP 117 STRESS PERIOD   1
     6 TOTAL ITERATIONS

 NO OUTPUT CONTROL FOR STRESS PERIOD    1   TIME STEP 117
 
 SOLVING FOR HEAD 
 FLOW MODEL IS TRANSIENT
 FLOW MODEL CONTAINS CONSTANT-HEAD CELLS


 MAXIMUM STEPSIZE DURING WHICH ANY PARTICLE CANNOT MOVE MORE THAN ONE CELL
 =  4.667    (WHEN MIN. R.F.=1)  AT K=   4, I=   1, J=  72

 MAXIMUM STEPSIZE WHICH MEETS STABILITY CRITERION OF THE ADVECTION TERM
 (FOR PURE FINITE-DIFFERENCE OPTION, MIXELM=0) 
 =  2.909    (WHEN MIN. R.F.=1)  AT K=   2, I=   1, J=  78


 TOTAL NUMBER OF POINT SOURCES/SINKS PRESENT IN THE FLOW MODEL =    62

 MAXIMUM STEPSIZE WHICH MEETS STABILITY CRITERION OF THE SINK & SOURCE TERM
 =  64.35    (WHEN MIN. R.F.=1)  AT K=   2, I=   1, J= 120

 MAXIMUM STEPSIZE WHICH MEETS STABILITY CRITERION OF THE DISPERSION TERM
 =  20.29    (WHEN MIN. R.F.=1)  AT K=   1, I=   1, J=  31
     1 CALLS TO GCG PACKAGE FOR TRANSPORT TIME STEP   2 IN FLOW TIME STEP 117 STRESS PERIOD   1
     6 TOTAL ITERATIONS
 
 SOLVING FOR HEAD 
 FLOW MODEL IS TRANSIENT
 FLOW MODEL CONTAINS CONSTANT-HEAD CELLS


 MAXIMUM STEPSIZE DURING WHICH ANY PARTICLE CANNOT MOVE MORE THAN ONE CELL
 =  4.716    (WHEN MIN. R.F.=1)  AT K=   4, I=   1, J=  72

 MAXIMUM STEPSIZE WHICH MEETS STABILITY CRITERION OF THE ADVECTION TERM
 (FOR PURE FINITE-DIFFERENCE OPTION, MIXELM=0) 
 =  2.822    (WHEN MIN. R.F.=1)  AT K=   2, I=   1, J=  78


 TOTAL NUMBER OF POINT SOURCES/SINKS PRESENT IN THE FLOW MODEL =    62

 MAXIMUM STEPSIZE WHICH MEETS STABILITY CRITERION OF THE SINK & SOURCE TERM
 =  64.83    (WHEN MIN. R.F.=1)  AT K=   2, I=   1, J= 120

 MAXIMUM STEPSIZE WHICH MEETS STABILITY CRITERION OF THE DISPERSION TERM
 =  20.29    (WHEN MIN. R.F.=1)  AT K=   1, I=   1, J=  31
     1 CALLS TO GCG PACKAGE FOR TRANSPORT TIME STEP   3 IN FLOW TIME STEP 117 STRESS PERIOD   1
     6 TOTAL ITERATIONS
 
 SOLVING FOR HEAD 
 FLOW MODEL IS TRANSIENT
 FLOW MODEL CONTAINS CONSTANT-HEAD CELLS


 MAXIMUM STEPSIZE DURING WHICH ANY PARTICLE CANNOT MOVE MORE THAN ONE CELL
 =  4.801    (WHEN MIN. R.F.=1)  AT K=   4, I=   1, J=  72

 MAXIMUM STEPSIZE WHICH MEETS STABILITY CRITERION OF THE ADVECTION TERM
 (FOR PURE FINITE-DIFFERENCE OPTION, MIXELM=0) 
 =  2.844    (WHEN MIN. R.F.=1)  AT K=   2, I=   1, J=  78


 TOTAL NUMBER OF POINT SOURCES/SINKS PRESENT IN THE FLOW MODEL =    62

 MAXIMUM STEPSIZE WHICH MEETS STABILITY CRITERION OF THE SINK & SOURCE TERM
 =  65.40    (WHEN MIN. R.F.=1)  AT K=   2, I=   1, J= 120

 MAXIMUM STEPSIZE WHICH MEETS STABILITY CRITERION OF THE DISPERSION TERM
 =  20.29    (WHEN MIN. R.F.=1)  AT K=   1, I=   1, J=  31
     1 CALLS TO GCG PACKAGE FOR TRANSPORT TIME STEP   4 IN FLOW TIME STEP 117 STRESS PERIOD   1
     5 TOTAL ITERATIONS
 
 SOLVING FOR HEAD 
 FLOW MODEL IS TRANSIENT
 FLOW MODEL CONTAINS CONSTANT-HEAD CELLS


 MAXIMUM STEPSIZE DURING WHICH ANY PARTICLE CANNOT MOVE MORE THAN ONE CELL
 =  4.913    (WHEN MIN. R.F.=1)  AT K=   4, I=   1, J=  72

 MAXIMUM STEPSIZE WHICH MEETS STABILITY CRITERION OF THE ADVECTION TERM
 (FOR PURE FINITE-DIFFERENCE OPTION, MIXELM=0) 
 =  2.924    (WHEN MIN. R.F.=1)  AT K=   2, I=   1, J=  42


 TOTAL NUMBER OF POINT SOURCES/SINKS PRESENT IN THE FLOW MODEL =    62

 MAXIMUM STEPSIZE WHICH MEETS STABILITY CRITERION OF THE SINK & SOURCE TERM
 =  64.95    (WHEN MIN. R.F.=1)  AT K=   2, I=   1, J= 120

 MAXIMUM STEPSIZE WHICH MEETS STABILITY CRITERION OF THE DISPERSION TERM
 =  20.29    (WHEN MIN. R.F.=1)  AT K=   1, I=   1, J=  31
     1 CALLS TO GCG PACKAGE FOR TRANSPORT TIME STEP   5 IN FLOW TIME STEP 117 STRESS PERIOD   1
     5 TOTAL ITERATIONS
  MAXIMUM CONCENTRATION CHANGES FOR EACH ITERATION:
  MAX. CHANGE LAYER,ROW,COL MAX. CHANGE LAYER,ROW,COL MAX. CHANGE LAYER,ROW,COL MAX. CHANGE LAYER,ROW,COL MAX. CHANGE LAYER,ROW,COL
 ------------------------------------------------------------------------------------------------------------------------------------
   0.2202E-01 (  2,  1, 79)  0.3659E-03 (  2,  1, 77)  0.1061E-04 (  3,  1, 77)  0.2765E-06 (  3,  1, 74)  0.7450E-08 (  3,  1, 46)


                                          ================================================
                                                         FROM TIME =   1170.0     TO    1180.0    

 
 SOLVING FOR HEAD 
 FLOW MODEL IS TRANSIENT
 FLOW MODEL CONTAINS CONSTANT-HEAD CELLS


 MAXIMUM STEPSIZE DURING WHICH ANY PARTICLE CANNOT MOVE MORE THAN ONE CELL
 =  4.963    (WHEN MIN. R.F.=1)  AT K=   5, I=   1, J=  72

 MAXIMUM STEPSIZE WHICH MEETS STABILITY CRITERION OF THE ADVECTION TERM
 (FOR PURE FINITE-DIFFERENCE OPTION, MIXELM=0) 
 =  2.947    (WHEN MIN. R.F.=1)  AT K=   2, I=   1, J=  42


 TOTAL NUMBER OF POINT SOURCES/SINKS PRESENT IN THE FLOW MODEL =    62

 MAXIMUM STEPSIZE WHICH MEETS STABILITY CRITERION OF THE SINK & SOURCE TERM
 =  67.62    (WHEN MIN. R.F.=1)  AT K=   2, I=   1, J= 120

 MAXIMUM STEPSIZE WHICH MEETS STABILITY CRITERION OF THE DISPERSION TERM
 =  20.29    (WHEN MIN. R.F.=1)  AT K=   1, I=   1, J=  31


     1 CALLS TO GCG PACKAGE FOR TRANSPORT TIME STEP   1 IN FLOW TIME STEP 118 STRESS PERIOD   1
     6 TOTAL ITERATIONS

 NO OUTPUT CONTROL FOR STRESS PERIOD    1   TIME STEP 118
 
 SOLVING FOR HEAD 
 FLOW MODEL IS TRANSIENT
 FLOW MODEL CONTAINS CONSTANT-HEAD CELLS


 MAXIMUM STEPSIZE DURING WHICH ANY PARTICLE CANNOT MOVE MORE THAN ONE CELL
 =  5.065    (WHEN MIN. R.F.=1)  AT K=   5, I=   1, J=  72

 MAXIMUM STEPSIZE WHICH MEETS STABILITY CRITERION OF THE ADVECTION TERM
 (FOR PURE FINITE-DIFFERENCE OPTION, MIXELM=0) 
 =  3.074    (WHEN MIN. R.F.=1)  AT K=   2, I=   1, J=  42


 TOTAL NUMBER OF POINT SOURCES/SINKS PRESENT IN THE FLOW MODEL =    62

 MAXIMUM STEPSIZE WHICH MEETS STABILITY CRITERION OF THE SINK & SOURCE TERM
 =  66.21    (WHEN MIN. R.F.=1)  AT K=   2, I=   1, J= 120

 MAXIMUM STEPSIZE WHICH MEETS STABILITY CRITERION OF THE DISPERSION TERM
 =  20.29    (WHEN MIN. R.F.=1)  AT K=   1, I=   1, J=  31
     1 CALLS TO GCG PACKAGE FOR TRANSPORT TIME STEP   2 IN FLOW TIME STEP 118 STRESS PERIOD   1
     6 TOTAL ITERATIONS
 
 SOLVING FOR HEAD 
 FLOW MODEL IS TRANSIENT
 FLOW MODEL CONTAINS CONSTANT-HEAD CELLS


 MAXIMUM STEPSIZE DURING WHICH ANY PARTICLE CANNOT MOVE MORE THAN ONE CELL
 =  5.191    (WHEN MIN. R.F.=1)  AT K=   5, I=   1, J=  72

 MAXIMUM STEPSIZE WHICH MEETS STABILITY CRITERION OF THE ADVECTION TERM
 (FOR PURE FINITE-DIFFERENCE OPTION, MIXELM=0) 
 =  2.929    (WHEN MIN. R.F.=1)  AT K=   2, I=   1, J=  77


 TOTAL NUMBER OF POINT SOURCES/SINKS PRESENT IN THE FLOW MODEL =    62

 MAXIMUM STEPSIZE WHICH MEETS STABILITY CRITERION OF THE SINK & SOURCE TERM
 =  66.63    (WHEN MIN. R.F.=1)  AT K=   2, I=   1, J= 120

 MAXIMUM STEPSIZE WHICH MEETS STABILITY CRITERION OF THE DISPERSION TERM
 =  20.29    (WHEN MIN. R.F.=1)  AT K=   1, I=   1, J=  31
     1 CALLS TO GCG PACKAGE FOR TRANSPORT TIME STEP   3 IN FLOW TIME STEP 118 STRESS PERIOD   1
     6 TOTAL ITERATIONS
 
 SOLVING FOR HEAD 
 FLOW MODEL IS TRANSIENT
 FLOW MODEL CONTAINS CONSTANT-HEAD CELLS


 MAXIMUM STEPSIZE DURING WHICH ANY PARTICLE CANNOT MOVE MORE THAN ONE CELL
 =  5.292    (WHEN MIN. R.F.=1)  AT K=   6, I=   1, J=  72

 MAXIMUM STEPSIZE WHICH MEETS STABILITY CRITERION OF THE ADVECTION TERM
 (FOR PURE FINITE-DIFFERENCE OPTION, MIXELM=0) 
 =  2.891    (WHEN MIN. R.F.=1)  AT K=   2, I=   1, J=  77


 TOTAL NUMBER OF POINT SOURCES/SINKS PRESENT IN THE FLOW MODEL =    62

 MAXIMUM STEPSIZE WHICH MEETS STABILITY CRITERION OF THE SINK & SOURCE TERM
 =  66.69    (WHEN MIN. R.F.=1)  AT K=   2, I=   1, J= 120

 MAXIMUM STEPSIZE WHICH MEETS STABILITY CRITERION OF THE DISPERSION TERM
 =  20.29    (WHEN MIN. R.F.=1)  AT K=   1, I=   1, J=  31
     1 CALLS TO GCG PACKAGE FOR TRANSPORT TIME STEP   4 IN FLOW TIME STEP 118 STRESS PERIOD   1
     6 TOTAL ITERATIONS
 
 SOLVING FOR HEAD 
 FLOW MODEL IS TRANSIENT
 FLOW MODEL CONTAINS CONSTANT-HEAD CELLS


 MAXIMUM STEPSIZE DURING WHICH ANY PARTICLE CANNOT MOVE MORE THAN ONE CELL
 =  5.403    (WHEN MIN. R.F.=1)  AT K=   6, I=   1, J=  72

 MAXIMUM STEPSIZE WHICH MEETS STABILITY CRITERION OF THE ADVECTION TERM
 (FOR PURE FINITE-DIFFERENCE OPTION, MIXELM=0) 
 =  2.951    (WHEN MIN. R.F.=1)  AT K=   2, I=   1, J=  43


 TOTAL NUMBER OF POINT SOURCES/SINKS PRESENT IN THE FLOW MODEL =    62

 MAXIMUM STEPSIZE WHICH MEETS STABILITY CRITERION OF THE SINK & SOURCE TERM
 =  65.91    (WHEN MIN. R.F.=1)  AT K=   2, I=   1, J= 120

 MAXIMUM STEPSIZE WHICH MEETS STABILITY CRITERION OF THE DISPERSION TERM
 =  20.29    (WHEN MIN. R.F.=1)  AT K=   1, I=   1, J=  31
     1 CALLS TO GCG PACKAGE FOR TRANSPORT TIME STEP   5 IN FLOW TIME STEP 118 STRESS PERIOD   1
     5 TOTAL ITERATIONS
  MAXIMUM CONCENTRATION CHANGES FOR EACH ITERATION:
  MAX. CHANGE LAYER,ROW,COL MAX. CHANGE LAYER,ROW,COL MAX. CHANGE LAYER,ROW,COL MAX. CHANGE LAYER,ROW,COL MAX. CHANGE LAYER,ROW,COL
 ------------------------------------------------------------------------------------------------------------------------------------
   0.1905E-01 (  2,  1, 78)  0.2826E-03 (  2,  1, 78)  0.7102E-05 (  3,  1, 76)  0.2454E-06 (  3,  1, 74)  0.4439E-08 (  4,  1, 74)


                                          ================================================
                                                         FROM TIME =   1180.0     TO    1190.0    

 
 SOLVING FOR HEAD 
 FLOW MODEL IS TRANSIENT
 FLOW MODEL CONTAINS CONSTANT-HEAD CELLS


 MAXIMUM STEPSIZE DURING WHICH ANY PARTICLE CANNOT MOVE MORE THAN ONE CELL
 =  5.450    (WHEN MIN. R.F.=1)  AT K=   7, I=   1, J=  72

 MAXIMUM STEPSIZE WHICH MEETS STABILITY CRITERION OF THE ADVECTION TERM
 (FOR PURE FINITE-DIFFERENCE OPTION, MIXELM=0) 
 =  2.961    (WHEN MIN. R.F.=1)  AT K=   2, I=   1, J=  43


 TOTAL NUMBER OF POINT SOURCES/SINKS PRESENT IN THE FLOW MODEL =    62

 MAXIMUM STEPSIZE WHICH MEETS STABILITY CRITERION OF THE SINK & SOURCE TERM
 =  69.15    (WHEN MIN. R.F.=1)  AT K=   2, I=   1, J= 120

 MAXIMUM STEPSIZE WHICH MEETS STABILITY CRITERION OF THE DISPERSION TERM
 =  20.29    (WHEN MIN. R.F.=1)  AT K=   1, I=   1, J=  31


     1 CALLS TO GCG PACKAGE FOR TRANSPORT TIME STEP   1 IN FLOW TIME STEP 119 STRESS PERIOD   1
     6 TOTAL ITERATIONS

 NO OUTPUT CONTROL FOR STRESS PERIOD    1   TIME STEP 119
 
 SOLVING FOR HEAD 
 FLOW MODEL IS TRANSIENT
 FLOW MODEL CONTAINS CONSTANT-HEAD CELLS


 MAXIMUM STEPSIZE DURING WHICH ANY PARTICLE CANNOT MOVE MORE THAN ONE CELL
 =  5.528    (WHEN MIN. R.F.=1)  AT K=   2, I=   1, J=  42

 MAXIMUM STEPSIZE WHICH MEETS STABILITY CRITERION OF THE ADVECTION TERM
 (FOR PURE FINITE-DIFFERENCE OPTION, MIXELM=0) 
 =  3.045    (WHEN MIN. R.F.=1)  AT K=   2, I=   1, J=  43


 TOTAL NUMBER OF POINT SOURCES/SINKS PRESENT IN THE FLOW MODEL =    62

 MAXIMUM STEPSIZE WHICH MEETS STABILITY CRITERION OF THE SINK & SOURCE TERM
 =  67.41    (WHEN MIN. R.F.=1)  AT K=   2, I=   1, J= 120

 MAXIMUM STEPSIZE WHICH MEETS STABILITY CRITERION OF THE DISPERSION TERM
 =  20.29    (WHEN MIN. R.F.=1)  AT K=   1, I=   1, J=  31
     1 CALLS TO GCG PACKAGE FOR TRANSPORT TIME STEP   2 IN FLOW TIME STEP 119 STRESS PERIOD   1
     6 TOTAL ITERATIONS
 
 SOLVING FOR HEAD 
 FLOW MODEL IS TRANSIENT
 FLOW MODEL CONTAINS CONSTANT-HEAD CELLS


 MAXIMUM STEPSIZE DURING WHICH ANY PARTICLE CANNOT MOVE MORE THAN ONE CELL
 =  5.437    (WHEN MIN. R.F.=1)  AT K=   4, I=   1, J=  50

 MAXIMUM STEPSIZE WHICH MEETS STABILITY CRITERION OF THE ADVECTION TERM
 (FOR PURE FINITE-DIFFERENCE OPTION, MIXELM=0) 
 =  3.134    (WHEN MIN. R.F.=1)  AT K=   2, I=   1, J=  76


 TOTAL NUMBER OF POINT SOURCES/SINKS PRESENT IN THE FLOW MODEL =    62

 MAXIMUM STEPSIZE WHICH MEETS STABILITY CRITERION OF THE SINK & SOURCE TERM
 =  67.75    (WHEN MIN. R.F.=1)  AT K=   2, I=   1, J= 120

 MAXIMUM STEPSIZE WHICH MEETS STABILITY CRITERION OF THE DISPERSION TERM
 =  20.29    (WHEN MIN. R.F.=1)  AT K=   1, I=   1, J=  31
     1 CALLS TO GCG PACKAGE FOR TRANSPORT TIME STEP   3 IN FLOW TIME STEP 119 STRESS PERIOD   1
     6 TOTAL ITERATIONS
 
 SOLVING FOR HEAD 
 FLOW MODEL IS TRANSIENT
 FLOW MODEL CONTAINS CONSTANT-HEAD CELLS


 MAXIMUM STEPSIZE DURING WHICH ANY PARTICLE CANNOT MOVE MORE THAN ONE CELL
 =  5.332    (WHEN MIN. R.F.=1)  AT K=   4, I=   1, J=  50

 MAXIMUM STEPSIZE WHICH MEETS STABILITY CRITERION OF THE ADVECTION TERM
 (FOR PURE FINITE-DIFFERENCE OPTION, MIXELM=0) 
 =  3.015    (WHEN MIN. R.F.=1)  AT K=   2, I=   1, J=  76


 TOTAL NUMBER OF POINT SOURCES/SINKS PRESENT IN THE FLOW MODEL =    62

 MAXIMUM STEPSIZE WHICH MEETS STABILITY CRITERION OF THE SINK & SOURCE TERM
 =  67.98    (WHEN MIN. R.F.=1)  AT K=   2, I=   1, J= 120

 MAXIMUM STEPSIZE WHICH MEETS STABILITY CRITERION OF THE DISPERSION TERM
 =  20.29    (WHEN MIN. R.F.=1)  AT K=   1, I=   1, J=  31
     1 CALLS TO GCG PACKAGE FOR TRANSPORT TIME STEP   4 IN FLOW TIME STEP 119 STRESS PERIOD   1
     6 TOTAL ITERATIONS
 
 SOLVING FOR HEAD 
 FLOW MODEL IS TRANSIENT
 FLOW MODEL CONTAINS CONSTANT-HEAD CELLS


 MAXIMUM STEPSIZE DURING WHICH ANY PARTICLE CANNOT MOVE MORE THAN ONE CELL
 =  5.296    (WHEN MIN. R.F.=1)  AT K=   4, I=   1, J=  50

 MAXIMUM STEPSIZE WHICH MEETS STABILITY CRITERION OF THE ADVECTION TERM
 (FOR PURE FINITE-DIFFERENCE OPTION, MIXELM=0) 
 =  3.011    (WHEN MIN. R.F.=1)  AT K=   2, I=   1, J=  76


 TOTAL NUMBER OF POINT SOURCES/SINKS PRESENT IN THE FLOW MODEL =    62

 MAXIMUM STEPSIZE WHICH MEETS STABILITY CRITERION OF THE SINK & SOURCE TERM
 =  66.76    (WHEN MIN. R.F.=1)  AT K=   2, I=   1, J= 120

 MAXIMUM STEPSIZE WHICH MEETS STABILITY CRITERION OF THE DISPERSION TERM
 =  20.29    (WHEN MIN. R.F.=1)  AT K=   1, I=   1, J=  31
     1 CALLS TO GCG PACKAGE FOR TRANSPORT TIME STEP   5 IN FLOW TIME STEP 119 STRESS PERIOD   1
     4 TOTAL ITERATIONS
  MAXIMUM CONCENTRATION CHANGES FOR EACH ITERATION:
  MAX. CHANGE LAYER,ROW,COL MAX. CHANGE LAYER,ROW,COL MAX. CHANGE LAYER,ROW,COL MAX. CHANGE LAYER,ROW,COL MAX. CHANGE LAYER,ROW,COL
 ------------------------------------------------------------------------------------------------------------------------------------
   0.1548E-01 (  2,  1, 77)  0.2285E-03 (  2,  1, 77)  0.4291E-05 (  2,  1, 78)  0.8755E-07 (  3,  1, 78)


                                          ================================================
                                                         FROM TIME =   1190.0     TO    1200.0    

 
 SOLVING FOR HEAD 
 FLOW MODEL IS TRANSIENT
 FLOW MODEL CONTAINS CONSTANT-HEAD CELLS


 MAXIMUM STEPSIZE DURING WHICH ANY PARTICLE CANNOT MOVE MORE THAN ONE CELL
 =  5.300    (WHEN MIN. R.F.=1)  AT K=   4, I=   1, J=  50

 MAXIMUM STEPSIZE WHICH MEETS STABILITY CRITERION OF THE ADVECTION TERM
 (FOR PURE FINITE-DIFFERENCE OPTION, MIXELM=0) 
 =  3.021    (WHEN MIN. R.F.=1)  AT K=   2, I=   1, J=  44


 TOTAL NUMBER OF POINT SOURCES/SINKS PRESENT IN THE FLOW MODEL =    62

 MAXIMUM STEPSIZE WHICH MEETS STABILITY CRITERION OF THE SINK & SOURCE TERM
 =  70.79    (WHEN MIN. R.F.=1)  AT K=   2, I=   1, J= 120

 MAXIMUM STEPSIZE WHICH MEETS STABILITY CRITERION OF THE DISPERSION TERM
 =  20.29    (WHEN MIN. R.F.=1)  AT K=   1, I=   1, J=  31


     1 CALLS TO GCG PACKAGE FOR TRANSPORT TIME STEP   1 IN FLOW TIME STEP 120 STRESS PERIOD   1
     6 TOTAL ITERATIONS

 NO OUTPUT CONTROL FOR STRESS PERIOD    1   TIME STEP 120
 
 SOLVING FOR HEAD 
 FLOW MODEL IS TRANSIENT
 FLOW MODEL CONTAINS CONSTANT-HEAD CELLS


 MAXIMUM STEPSIZE DURING WHICH ANY PARTICLE CANNOT MOVE MORE THAN ONE CELL
 =  5.352    (WHEN MIN. R.F.=1)  AT K=   4, I=   1, J=  50

 MAXIMUM STEPSIZE WHICH MEETS STABILITY CRITERION OF THE ADVECTION TERM
 (FOR PURE FINITE-DIFFERENCE OPTION, MIXELM=0) 
 =  3.065    (WHEN MIN. R.F.=1)  AT K=   2, I=   1, J=  44


 TOTAL NUMBER OF POINT SOURCES/SINKS PRESENT IN THE FLOW MODEL =    62

 MAXIMUM STEPSIZE WHICH MEETS STABILITY CRITERION OF THE SINK & SOURCE TERM
 =  69.42    (WHEN MIN. R.F.=1)  AT K=   2, I=   1, J= 120

 MAXIMUM STEPSIZE WHICH MEETS STABILITY CRITERION OF THE DISPERSION TERM
 =  20.29    (WHEN MIN. R.F.=1)  AT K=   1, I=   1, J=  31
     1 CALLS TO GCG PACKAGE FOR TRANSPORT TIME STEP   2 IN FLOW TIME STEP 120 STRESS PERIOD   1
     6 TOTAL ITERATIONS
 
 SOLVING FOR HEAD 
 FLOW MODEL IS TRANSIENT
 FLOW MODEL CONTAINS CONSTANT-HEAD CELLS


 MAXIMUM STEPSIZE DURING WHICH ANY PARTICLE CANNOT MOVE MORE THAN ONE CELL
 =  5.418    (WHEN MIN. R.F.=1)  AT K=   5, I=   1, J=  50

 MAXIMUM STEPSIZE WHICH MEETS STABILITY CRITERION OF THE ADVECTION TERM
 (FOR PURE FINITE-DIFFERENCE OPTION, MIXELM=0) 
 =  3.227    (WHEN MIN. R.F.=1)  AT K=   2, I=   1, J=  44


 TOTAL NUMBER OF POINT SOURCES/SINKS PRESENT IN THE FLOW MODEL =    62

 MAXIMUM STEPSIZE WHICH MEETS STABILITY CRITERION OF THE SINK & SOURCE TERM
 =  69.62    (WHEN MIN. R.F.=1)  AT K=   2, I=   1, J= 120

 MAXIMUM STEPSIZE WHICH MEETS STABILITY CRITERION OF THE DISPERSION TERM
 =  20.29    (WHEN MIN. R.F.=1)  AT K=   1, I=   1, J=  31
     1 CALLS TO GCG PACKAGE FOR TRANSPORT TIME STEP   3 IN FLOW TIME STEP 120 STRESS PERIOD   1
     6 TOTAL ITERATIONS
 
 SOLVING FOR HEAD 
 FLOW MODEL IS TRANSIENT
 FLOW MODEL CONTAINS CONSTANT-HEAD CELLS


 MAXIMUM STEPSIZE DURING WHICH ANY PARTICLE CANNOT MOVE MORE THAN ONE CELL
 =  5.450    (WHEN MIN. R.F.=1)  AT K=   5, I=   1, J=  50

 MAXIMUM STEPSIZE WHICH MEETS STABILITY CRITERION OF THE ADVECTION TERM
 (FOR PURE FINITE-DIFFERENCE OPTION, MIXELM=0) 
 =  3.361    (WHEN MIN. R.F.=1)  AT K=   2, I=   1, J=  75


 TOTAL NUMBER OF POINT SOURCES/SINKS PRESENT IN THE FLOW MODEL =    62

 MAXIMUM STEPSIZE WHICH MEETS STABILITY CRITERION OF THE SINK & SOURCE TERM
 =  69.97    (WHEN MIN. R.F.=1)  AT K=   2, I=   1, J= 120

 MAXIMUM STEPSIZE WHICH MEETS STABILITY CRITERION OF THE DISPERSION TERM
 =  20.29    (WHEN MIN. R.F.=1)  AT K=   1, I=   1, J=  31
     1 CALLS TO GCG PACKAGE FOR TRANSPORT TIME STEP   4 IN FLOW TIME STEP 120 STRESS PERIOD   1
     6 TOTAL ITERATIONS
 
 SOLVING FOR HEAD 
 FLOW MODEL IS TRANSIENT
 FLOW MODEL CONTAINS CONSTANT-HEAD CELLS


 MAXIMUM STEPSIZE DURING WHICH ANY PARTICLE CANNOT MOVE MORE THAN ONE CELL
 =  5.533    (WHEN MIN. R.F.=1)  AT K=   5, I=   1, J=  50

 MAXIMUM STEPSIZE WHICH MEETS STABILITY CRITERION OF THE ADVECTION TERM
 (FOR PURE FINITE-DIFFERENCE OPTION, MIXELM=0) 
 =  3.182    (WHEN MIN. R.F.=1)  AT K=   2, I=   1, J=  45


 TOTAL NUMBER OF POINT SOURCES/SINKS PRESENT IN THE FLOW MODEL =    62

 MAXIMUM STEPSIZE WHICH MEETS STABILITY CRITERION OF THE SINK & SOURCE TERM
 =  67.72    (WHEN MIN. R.F.=1)  AT K=   2, I=   1, J= 120

 MAXIMUM STEPSIZE WHICH MEETS STABILITY CRITERION OF THE DISPERSION TERM
 =  20.29    (WHEN MIN. R.F.=1)  AT K=   1, I=   1, J=  31
     1 CALLS TO GCG PACKAGE FOR TRANSPORT TIME STEP   5 IN FLOW TIME STEP 120 STRESS PERIOD   1
     4 TOTAL ITERATIONS
  MAXIMUM CONCENTRATION CHANGES FOR EACH ITERATION:
  MAX. CHANGE LAYER,ROW,COL MAX. CHANGE LAYER,ROW,COL MAX. CHANGE LAYER,ROW,COL MAX. CHANGE LAYER,ROW,COL MAX. CHANGE LAYER,ROW,COL
 ------------------------------------------------------------------------------------------------------------------------------------
   0.1064E-01 (  2,  1, 84)  0.1452E-03 (  2,  1, 75)  0.2157E-05 (  3,  1, 73)  0.4405E-07 (  3,  1, 48)


                                          ================================================
                                                         FROM TIME =   1200.0     TO    1210.0    

 
 SOLVING FOR HEAD 
 FLOW MODEL IS TRANSIENT
 FLOW MODEL CONTAINS CONSTANT-HEAD CELLS


 MAXIMUM STEPSIZE DURING WHICH ANY PARTICLE CANNOT MOVE MORE THAN ONE CELL
 =  5.547    (WHEN MIN. R.F.=1)  AT K=   6, I=   1, J=  50

 MAXIMUM STEPSIZE WHICH MEETS STABILITY CRITERION OF THE ADVECTION TERM
 (FOR PURE FINITE-DIFFERENCE OPTION, MIXELM=0) 
 =  3.153    (WHEN MIN. R.F.=1)  AT K=   2, I=   1, J=  45


 TOTAL NUMBER OF POINT SOURCES/SINKS PRESENT IN THE FLOW MODEL =    62

 MAXIMUM STEPSIZE WHICH MEETS STABILITY CRITERION OF THE SINK & SOURCE TERM
 =  71.36    (WHEN MIN. R.F.=1)  AT K=   2, I=   1, J= 120

 MAXIMUM STEPSIZE WHICH MEETS STABILITY CRITERION OF THE DISPERSION TERM
 =  20.29    (WHEN MIN. R.F.=1)  AT K=   1, I=   1, J=  31


     1 CALLS TO GCG PACKAGE FOR TRANSPORT TIME STEP   1 IN FLOW TIME STEP 121 STRESS PERIOD   1
     6 TOTAL ITERATIONS

 NO OUTPUT CONTROL FOR STRESS PERIOD    1   TIME STEP 121
 
 SOLVING FOR HEAD 
 FLOW MODEL IS TRANSIENT
 FLOW MODEL CONTAINS CONSTANT-HEAD CELLS


 MAXIMUM STEPSIZE DURING WHICH ANY PARTICLE CANNOT MOVE MORE THAN ONE CELL
 =  5.571    (WHEN MIN. R.F.=1)  AT K=   6, I=   1, J=  50

 MAXIMUM STEPSIZE WHICH MEETS STABILITY CRITERION OF THE ADVECTION TERM
 (FOR PURE FINITE-DIFFERENCE OPTION, MIXELM=0) 
 =  3.130    (WHEN MIN. R.F.=1)  AT K=   2, I=   1, J=  45


 TOTAL NUMBER OF POINT SOURCES/SINKS PRESENT IN THE FLOW MODEL =    62

 MAXIMUM STEPSIZE WHICH MEETS STABILITY CRITERION OF THE SINK & SOURCE TERM
 =  69.63    (WHEN MIN. R.F.=1)  AT K=   2, I=   1, J= 120

 MAXIMUM STEPSIZE WHICH MEETS STABILITY CRITERION OF THE DISPERSION TERM
 =  20.29    (WHEN MIN. R.F.=1)  AT K=   1, I=   1, J=  31
     1 CALLS TO GCG PACKAGE FOR TRANSPORT TIME STEP   2 IN FLOW TIME STEP 121 STRESS PERIOD   1
     6 TOTAL ITERATIONS
 
 SOLVING FOR HEAD 
 FLOW MODEL IS TRANSIENT
 FLOW MODEL CONTAINS CONSTANT-HEAD CELLS


 MAXIMUM STEPSIZE DURING WHICH ANY PARTICLE CANNOT MOVE MORE THAN ONE CELL
 =  5.632    (WHEN MIN. R.F.=1)  AT K=   7, I=   1, J=  50

 MAXIMUM STEPSIZE WHICH MEETS STABILITY CRITERION OF THE ADVECTION TERM
 (FOR PURE FINITE-DIFFERENCE OPTION, MIXELM=0) 
 =  3.215    (WHEN MIN. R.F.=1)  AT K=   2, I=   1, J=  45


 TOTAL NUMBER OF POINT SOURCES/SINKS PRESENT IN THE FLOW MODEL =    62

 MAXIMUM STEPSIZE WHICH MEETS STABILITY CRITERION OF THE SINK & SOURCE TERM
 =  69.49    (WHEN MIN. R.F.=1)  AT K=   2, I=   1, J= 120

 MAXIMUM STEPSIZE WHICH MEETS STABILITY CRITERION OF THE DISPERSION TERM
 =  20.29    (WHEN MIN. R.F.=1)  AT K=   1, I=   1, J=  31
     1 CALLS TO GCG PACKAGE FOR TRANSPORT TIME STEP   3 IN FLOW TIME STEP 121 STRESS PERIOD   1
     6 TOTAL ITERATIONS
 
 SOLVING FOR HEAD 
 FLOW MODEL IS TRANSIENT
 FLOW MODEL CONTAINS CONSTANT-HEAD CELLS


 MAXIMUM STEPSIZE DURING WHICH ANY PARTICLE CANNOT MOVE MORE THAN ONE CELL
 =  5.636    (WHEN MIN. R.F.=1)  AT K=   7, I=   1, J=  50

 MAXIMUM STEPSIZE WHICH MEETS STABILITY CRITERION OF THE ADVECTION TERM
 (FOR PURE FINITE-DIFFERENCE OPTION, MIXELM=0) 
 =  3.454    (WHEN MIN. R.F.=1)  AT K=   2, I=   1, J=  45


 TOTAL NUMBER OF POINT SOURCES/SINKS PRESENT IN THE FLOW MODEL =    62

 MAXIMUM STEPSIZE WHICH MEETS STABILITY CRITERION OF THE SINK & SOURCE TERM
 =  69.07    (WHEN MIN. R.F.=1)  AT K=   2, I=   1, J= 120

 MAXIMUM STEPSIZE WHICH MEETS STABILITY CRITERION OF THE DISPERSION TERM
 =  20.29    (WHEN MIN. R.F.=1)  AT K=   1, I=   1, J=  31
     1 CALLS TO GCG PACKAGE FOR TRANSPORT TIME STEP   4 IN FLOW TIME STEP 121 STRESS PERIOD   1
     6 TOTAL ITERATIONS
 
 SOLVING FOR HEAD 
 FLOW MODEL IS TRANSIENT
 FLOW MODEL CONTAINS CONSTANT-HEAD CELLS


 MAXIMUM STEPSIZE DURING WHICH ANY PARTICLE CANNOT MOVE MORE THAN ONE CELL
 =  5.681    (WHEN MIN. R.F.=1)  AT K=   7, I=   1, J=  50

 MAXIMUM STEPSIZE WHICH MEETS STABILITY CRITERION OF THE ADVECTION TERM
 (FOR PURE FINITE-DIFFERENCE OPTION, MIXELM=0) 
 =  3.469    (WHEN MIN. R.F.=1)  AT K=   2, I=   1, J=  46


 TOTAL NUMBER OF POINT SOURCES/SINKS PRESENT IN THE FLOW MODEL =    62

 MAXIMUM STEPSIZE WHICH MEETS STABILITY CRITERION OF THE SINK & SOURCE TERM
 =  66.10    (WHEN MIN. R.F.=1)  AT K=   2, I=   1, J= 120

 MAXIMUM STEPSIZE WHICH MEETS STABILITY CRITERION OF THE DISPERSION TERM
 =  20.29    (WHEN MIN. R.F.=1)  AT K=   1, I=   1, J=  31
     1 CALLS TO GCG PACKAGE FOR TRANSPORT TIME STEP   5 IN FLOW TIME STEP 121 STRESS PERIOD   1
     4 TOTAL ITERATIONS
  MAXIMUM CONCENTRATION CHANGES FOR EACH ITERATION:
  MAX. CHANGE LAYER,ROW,COL MAX. CHANGE LAYER,ROW,COL MAX. CHANGE LAYER,ROW,COL MAX. CHANGE LAYER,ROW,COL MAX. CHANGE LAYER,ROW,COL
 ------------------------------------------------------------------------------------------------------------------------------------
   0.7963E-02 (  2,  1, 83)  0.6689E-04 (  2,  1, 74)  0.6302E-06 (  2,  1, 84)  0.7546E-08 (  3,  1, 84)


                                          ================================================
                                                         FROM TIME =   1210.0     TO    1220.0    

 
 SOLVING FOR HEAD 
 FLOW MODEL IS TRANSIENT
 FLOW MODEL CONTAINS CONSTANT-HEAD CELLS


 MAXIMUM STEPSIZE DURING WHICH ANY PARTICLE CANNOT MOVE MORE THAN ONE CELL
 =  5.693    (WHEN MIN. R.F.=1)  AT K=   7, I=   1, J=  50

 MAXIMUM STEPSIZE WHICH MEETS STABILITY CRITERION OF THE ADVECTION TERM
 (FOR PURE FINITE-DIFFERENCE OPTION, MIXELM=0) 
 =  3.427    (WHEN MIN. R.F.=1)  AT K=   2, I=   1, J=  46


 TOTAL NUMBER OF POINT SOURCES/SINKS PRESENT IN THE FLOW MODEL =    62

 MAXIMUM STEPSIZE WHICH MEETS STABILITY CRITERION OF THE SINK & SOURCE TERM
 =  69.23    (WHEN MIN. R.F.=1)  AT K=   2, I=   1, J= 120

 MAXIMUM STEPSIZE WHICH MEETS STABILITY CRITERION OF THE DISPERSION TERM
 =  20.29    (WHEN MIN. R.F.=1)  AT K=   1, I=   1, J=  31


     1 CALLS TO GCG PACKAGE FOR TRANSPORT TIME STEP   1 IN FLOW TIME STEP 122 STRESS PERIOD   1
     6 TOTAL ITERATIONS

 NO OUTPUT CONTROL FOR STRESS PERIOD    1   TIME STEP 122
 
 SOLVING FOR HEAD 
 FLOW MODEL IS TRANSIENT
 FLOW MODEL CONTAINS CONSTANT-HEAD CELLS


 MAXIMUM STEPSIZE DURING WHICH ANY PARTICLE CANNOT MOVE MORE THAN ONE CELL
 =  5.714    (WHEN MIN. R.F.=1)  AT K=   8, I=   1, J=  50

 MAXIMUM STEPSIZE WHICH MEETS STABILITY CRITERION OF THE ADVECTION TERM
 (FOR PURE FINITE-DIFFERENCE OPTION, MIXELM=0) 
 =  3.279    (WHEN MIN. R.F.=1)  AT K=   2, I=   1, J=  46


 TOTAL NUMBER OF POINT SOURCES/SINKS PRESENT IN THE FLOW MODEL =    62

 MAXIMUM STEPSIZE WHICH MEETS STABILITY CRITERION OF THE SINK & SOURCE TERM
 =  66.83    (WHEN MIN. R.F.=1)  AT K=   2, I=   1, J= 120

 MAXIMUM STEPSIZE WHICH MEETS STABILITY CRITERION OF THE DISPERSION TERM
 =  20.29    (WHEN MIN. R.F.=1)  AT K=   1, I=   1, J=  31
     1 CALLS TO GCG PACKAGE FOR TRANSPORT TIME STEP   2 IN FLOW TIME STEP 122 STRESS PERIOD   1
     6 TOTAL ITERATIONS
 
 SOLVING FOR HEAD 
 FLOW MODEL IS TRANSIENT
 FLOW MODEL CONTAINS CONSTANT-HEAD CELLS


 MAXIMUM STEPSIZE DURING WHICH ANY PARTICLE CANNOT MOVE MORE THAN ONE CELL
 =  5.758    (WHEN MIN. R.F.=1)  AT K=   8, I=   1, J=  50

 MAXIMUM STEPSIZE WHICH MEETS STABILITY CRITERION OF THE ADVECTION TERM
 (FOR PURE FINITE-DIFFERENCE OPTION, MIXELM=0) 
 =  3.185    (WHEN MIN. R.F.=1)  AT K=   2, I=   1, J=  81


 TOTAL NUMBER OF POINT SOURCES/SINKS PRESENT IN THE FLOW MODEL =    62

 MAXIMUM STEPSIZE WHICH MEETS STABILITY CRITERION OF THE SINK & SOURCE TERM
 =  66.01    (WHEN MIN. R.F.=1)  AT K=   2, I=   1, J= 120

 MAXIMUM STEPSIZE WHICH MEETS STABILITY CRITERION OF THE DISPERSION TERM
 =  20.29    (WHEN MIN. R.F.=1)  AT K=   1, I=   1, J=  31
     1 CALLS TO GCG PACKAGE FOR TRANSPORT TIME STEP   3 IN FLOW TIME STEP 122 STRESS PERIOD   1
     6 TOTAL ITERATIONS
 
 SOLVING FOR HEAD 
 FLOW MODEL IS TRANSIENT
 FLOW MODEL CONTAINS CONSTANT-HEAD CELLS


 MAXIMUM STEPSIZE DURING WHICH ANY PARTICLE CANNOT MOVE MORE THAN ONE CELL
 =  5.787    (WHEN MIN. R.F.=1)  AT K=   2, I=   1, J=  82

 MAXIMUM STEPSIZE WHICH MEETS STABILITY CRITERION OF THE ADVECTION TERM
 (FOR PURE FINITE-DIFFERENCE OPTION, MIXELM=0) 
 =  3.031    (WHEN MIN. R.F.=1)  AT K=   2, I=   1, J=  81


 TOTAL NUMBER OF POINT SOURCES/SINKS PRESENT IN THE FLOW MODEL =    62

 MAXIMUM STEPSIZE WHICH MEETS STABILITY CRITERION OF THE SINK & SOURCE TERM
 =  66.01    (WHEN MIN. R.F.=1)  AT K=   2, I=   1, J= 120

 MAXIMUM STEPSIZE WHICH MEETS STABILITY CRITERION OF THE DISPERSION TERM
 =  20.29    (WHEN MIN. R.F.=1)  AT K=   1, I=   1, J=  31
     1 CALLS TO GCG PACKAGE FOR TRANSPORT TIME STEP   4 IN FLOW TIME STEP 122 STRESS PERIOD   1
     6 TOTAL ITERATIONS
  MAXIMUM CONCENTRATION CHANGES FOR EACH ITERATION:
  MAX. CHANGE LAYER,ROW,COL MAX. CHANGE LAYER,ROW,COL MAX. CHANGE LAYER,ROW,COL MAX. CHANGE LAYER,ROW,COL MAX. CHANGE LAYER,ROW,COL
 ------------------------------------------------------------------------------------------------------------------------------------
   0.4090E-01 (  2,  1, 82)  0.1313E-02 (  2,  1, 82)  0.7008E-04 (  2,  1, 83)  0.3159E-05 (  3,  1, 83)  0.2081E-06 (  3,  1, 77)
   0.1048E-07 (  4,  1, 77)


                                          ================================================
                                                         FROM TIME =   1220.0     TO    1230.0    

 
 SOLVING FOR HEAD 
 FLOW MODEL IS TRANSIENT
 FLOW MODEL CONTAINS CONSTANT-HEAD CELLS


 MAXIMUM STEPSIZE DURING WHICH ANY PARTICLE CANNOT MOVE MORE THAN ONE CELL
 =  5.598    (WHEN MIN. R.F.=1)  AT K=   2, I=   1, J=  82

 MAXIMUM STEPSIZE WHICH MEETS STABILITY CRITERION OF THE ADVECTION TERM
 (FOR PURE FINITE-DIFFERENCE OPTION, MIXELM=0) 
 =  3.071    (WHEN MIN. R.F.=1)  AT K=   2, I=   1, J=  81


 TOTAL NUMBER OF POINT SOURCES/SINKS PRESENT IN THE FLOW MODEL =    62

 MAXIMUM STEPSIZE WHICH MEETS STABILITY CRITERION OF THE SINK & SOURCE TERM
 =  65.85    (WHEN MIN. R.F.=1)  AT K=   2, I=   1, J= 120

 MAXIMUM STEPSIZE WHICH MEETS STABILITY CRITERION OF THE DISPERSION TERM
 =  20.29    (WHEN MIN. R.F.=1)  AT K=   1, I=   1, J=  31


     1 CALLS TO GCG PACKAGE FOR TRANSPORT TIME STEP   1 IN FLOW TIME STEP 123 STRESS PERIOD   1
     6 TOTAL ITERATIONS

 NO OUTPUT CONTROL FOR STRESS PERIOD    1   TIME STEP 123
 
 SOLVING FOR HEAD 
 FLOW MODEL IS TRANSIENT
 FLOW MODEL CONTAINS CONSTANT-HEAD CELLS


 MAXIMUM STEPSIZE DURING WHICH ANY PARTICLE CANNOT MOVE MORE THAN ONE CELL
 =  5.527    (WHEN MIN. R.F.=1)  AT K=   2, I=   1, J=  82

 MAXIMUM STEPSIZE WHICH MEETS STABILITY CRITERION OF THE ADVECTION TERM
 (FOR PURE FINITE-DIFFERENCE OPTION, MIXELM=0) 
 =  3.148    (WHEN MIN. R.F.=1)  AT K=   2, I=   1, J=  80


 TOTAL NUMBER OF POINT SOURCES/SINKS PRESENT IN THE FLOW MODEL =    62

 MAXIMUM STEPSIZE WHICH MEETS STABILITY CRITERION OF THE SINK & SOURCE TERM
 =  64.81    (WHEN MIN. R.F.=1)  AT K=   2, I=   1, J= 120

 MAXIMUM STEPSIZE WHICH MEETS STABILITY CRITERION OF THE DISPERSION TERM
 =  20.29    (WHEN MIN. R.F.=1)  AT K=   1, I=   1, J=  31
     1 CALLS TO GCG PACKAGE FOR TRANSPORT TIME STEP   2 IN FLOW TIME STEP 123 STRESS PERIOD   1
     6 TOTAL ITERATIONS
 
 SOLVING FOR HEAD 
 FLOW MODEL IS TRANSIENT
 FLOW MODEL CONTAINS CONSTANT-HEAD CELLS


 MAXIMUM STEPSIZE DURING WHICH ANY PARTICLE CANNOT MOVE MORE THAN ONE CELL
 =  5.546    (WHEN MIN. R.F.=1)  AT K=   2, I=   1, J=  82

 MAXIMUM STEPSIZE WHICH MEETS STABILITY CRITERION OF THE ADVECTION TERM
 (FOR PURE FINITE-DIFFERENCE OPTION, MIXELM=0) 
 =  2.873    (WHEN MIN. R.F.=1)  AT K=   2, I=   1, J=  80


 TOTAL NUMBER OF POINT SOURCES/SINKS PRESENT IN THE FLOW MODEL =    62

 MAXIMUM STEPSIZE WHICH MEETS STABILITY CRITERION OF THE SINK & SOURCE TERM
 =  63.73    (WHEN MIN. R.F.=1)  AT K=   2, I=   1, J= 120

 MAXIMUM STEPSIZE WHICH MEETS STABILITY CRITERION OF THE DISPERSION TERM
 =  20.29    (WHEN MIN. R.F.=1)  AT K=   1, I=   1, J=  31
     1 CALLS TO GCG PACKAGE FOR TRANSPORT TIME STEP   3 IN FLOW TIME STEP 123 STRESS PERIOD   1
     6 TOTAL ITERATIONS
 
 SOLVING FOR HEAD 
 FLOW MODEL IS TRANSIENT
 FLOW MODEL CONTAINS CONSTANT-HEAD CELLS


 MAXIMUM STEPSIZE DURING WHICH ANY PARTICLE CANNOT MOVE MORE THAN ONE CELL
 =  5.465    (WHEN MIN. R.F.=1)  AT K=   2, I=   1, J=  81

 MAXIMUM STEPSIZE WHICH MEETS STABILITY CRITERION OF THE ADVECTION TERM
 (FOR PURE FINITE-DIFFERENCE OPTION, MIXELM=0) 
 =  2.783    (WHEN MIN. R.F.=1)  AT K=   2, I=   1, J=  80


 TOTAL NUMBER OF POINT SOURCES/SINKS PRESENT IN THE FLOW MODEL =    62

 MAXIMUM STEPSIZE WHICH MEETS STABILITY CRITERION OF THE SINK & SOURCE TERM
 =  63.06    (WHEN MIN. R.F.=1)  AT K=   2, I=   1, J= 120

 MAXIMUM STEPSIZE WHICH MEETS STABILITY CRITERION OF THE DISPERSION TERM
 =  20.29    (WHEN MIN. R.F.=1)  AT K=   1, I=   1, J=  31
     1 CALLS TO GCG PACKAGE FOR TRANSPORT TIME STEP   4 IN FLOW TIME STEP 123 STRESS PERIOD   1
     6 TOTAL ITERATIONS
 
 SOLVING FOR HEAD 
 FLOW MODEL IS TRANSIENT
 FLOW MODEL CONTAINS CONSTANT-HEAD CELLS


 MAXIMUM STEPSIZE DURING WHICH ANY PARTICLE CANNOT MOVE MORE THAN ONE CELL
 =  5.327    (WHEN MIN. R.F.=1)  AT K=   2, I=   1, J=  81

 MAXIMUM STEPSIZE WHICH MEETS STABILITY CRITERION OF THE ADVECTION TERM
 (FOR PURE FINITE-DIFFERENCE OPTION, MIXELM=0) 
 =  2.855    (WHEN MIN. R.F.=1)  AT K=   2, I=   1, J=  80


 TOTAL NUMBER OF POINT SOURCES/SINKS PRESENT IN THE FLOW MODEL =    62

 MAXIMUM STEPSIZE WHICH MEETS STABILITY CRITERION OF THE SINK & SOURCE TERM
 =  62.04    (WHEN MIN. R.F.=1)  AT K=   2, I=   1, J= 120

 MAXIMUM STEPSIZE WHICH MEETS STABILITY CRITERION OF THE DISPERSION TERM
 =  20.29    (WHEN MIN. R.F.=1)  AT K=   1, I=   1, J=  31
     1 CALLS TO GCG PACKAGE FOR TRANSPORT TIME STEP   5 IN FLOW TIME STEP 123 STRESS PERIOD   1
     4 TOTAL ITERATIONS
  MAXIMUM CONCENTRATION CHANGES FOR EACH ITERATION:
  MAX. CHANGE LAYER,ROW,COL MAX. CHANGE LAYER,ROW,COL MAX. CHANGE LAYER,ROW,COL MAX. CHANGE LAYER,ROW,COL MAX. CHANGE LAYER,ROW,COL
 ------------------------------------------------------------------------------------------------------------------------------------
   0.1562E-01 (  2,  1, 81)  0.1946E-03 (  2,  1, 79)  0.5502E-05 (  3,  1, 79)  0.9184E-07 (  3,  1, 82)


                                          ================================================
                                                         FROM TIME =   1230.0     TO    1240.0    

 
 SOLVING FOR HEAD 
 FLOW MODEL IS TRANSIENT
 FLOW MODEL CONTAINS CONSTANT-HEAD CELLS


 MAXIMUM STEPSIZE DURING WHICH ANY PARTICLE CANNOT MOVE MORE THAN ONE CELL
 =  5.300    (WHEN MIN. R.F.=1)  AT K=   2, I=   1, J=  81

 MAXIMUM STEPSIZE WHICH MEETS STABILITY CRITERION OF THE ADVECTION TERM
 (FOR PURE FINITE-DIFFERENCE OPTION, MIXELM=0) 
 =  2.945    (WHEN MIN. R.F.=1)  AT K=   2, I=   1, J=  80


 TOTAL NUMBER OF POINT SOURCES/SINKS PRESENT IN THE FLOW MODEL =    62

 MAXIMUM STEPSIZE WHICH MEETS STABILITY CRITERION OF THE SINK & SOURCE TERM
 =  64.98    (WHEN MIN. R.F.=1)  AT K=   2, I=   1, J= 120

 MAXIMUM STEPSIZE WHICH MEETS STABILITY CRITERION OF THE DISPERSION TERM
 =  20.29    (WHEN MIN. R.F.=1)  AT K=   1, I=   1, J=  31


     1 CALLS TO GCG PACKAGE FOR TRANSPORT TIME STEP   1 IN FLOW TIME STEP 124 STRESS PERIOD   1
     6 TOTAL ITERATIONS

 NO OUTPUT CONTROL FOR STRESS PERIOD    1   TIME STEP 124
 
 SOLVING FOR HEAD 
 FLOW MODEL IS TRANSIENT
 FLOW MODEL CONTAINS CONSTANT-HEAD CELLS


 MAXIMUM STEPSIZE DURING WHICH ANY PARTICLE CANNOT MOVE MORE THAN ONE CELL
 =  5.293    (WHEN MIN. R.F.=1)  AT K=   2, I=   1, J=  81

 MAXIMUM STEPSIZE WHICH MEETS STABILITY CRITERION OF THE ADVECTION TERM
 (FOR PURE FINITE-DIFFERENCE OPTION, MIXELM=0) 
 =  3.054    (WHEN MIN. R.F.=1)  AT K=   2, I=   1, J=  79


 TOTAL NUMBER OF POINT SOURCES/SINKS PRESENT IN THE FLOW MODEL =    62

 MAXIMUM STEPSIZE WHICH MEETS STABILITY CRITERION OF THE SINK & SOURCE TERM
 =  63.05    (WHEN MIN. R.F.=1)  AT K=   2, I=   1, J= 120

 MAXIMUM STEPSIZE WHICH MEETS STABILITY CRITERION OF THE DISPERSION TERM
 =  20.29    (WHEN MIN. R.F.=1)  AT K=   1, I=   1, J=  31
     1 CALLS TO GCG PACKAGE FOR TRANSPORT TIME STEP   2 IN FLOW TIME STEP 124 STRESS PERIOD   1
     6 TOTAL ITERATIONS
 
 SOLVING FOR HEAD 
 FLOW MODEL IS TRANSIENT
 FLOW MODEL CONTAINS CONSTANT-HEAD CELLS


 MAXIMUM STEPSIZE DURING WHICH ANY PARTICLE CANNOT MOVE MORE THAN ONE CELL
 =  5.229    (WHEN MIN. R.F.=1)  AT K=   3, I=   1, J=  79

 MAXIMUM STEPSIZE WHICH MEETS STABILITY CRITERION OF THE ADVECTION TERM
 (FOR PURE FINITE-DIFFERENCE OPTION, MIXELM=0) 
 =  2.850    (WHEN MIN. R.F.=1)  AT K=   2, I=   1, J=  79


 TOTAL NUMBER OF POINT SOURCES/SINKS PRESENT IN THE FLOW MODEL =    62

 MAXIMUM STEPSIZE WHICH MEETS STABILITY CRITERION OF THE SINK & SOURCE TERM
 =  63.11    (WHEN MIN. R.F.=1)  AT K=   2, I=   1, J= 120

 MAXIMUM STEPSIZE WHICH MEETS STABILITY CRITERION OF THE DISPERSION TERM
 =  20.29    (WHEN MIN. R.F.=1)  AT K=   1, I=   1, J=  31
     1 CALLS TO GCG PACKAGE FOR TRANSPORT TIME STEP   3 IN FLOW TIME STEP 124 STRESS PERIOD   1
     6 TOTAL ITERATIONS
 
 SOLVING FOR HEAD 
 FLOW MODEL IS TRANSIENT
 FLOW MODEL CONTAINS CONSTANT-HEAD CELLS


 MAXIMUM STEPSIZE DURING WHICH ANY PARTICLE CANNOT MOVE MORE THAN ONE CELL
 =  5.248    (WHEN MIN. R.F.=1)  AT K=   3, I=   1, J=  79

 MAXIMUM STEPSIZE WHICH MEETS STABILITY CRITERION OF THE ADVECTION TERM
 (FOR PURE FINITE-DIFFERENCE OPTION, MIXELM=0) 
 =  2.771    (WHEN MIN. R.F.=1)  AT K=   2, I=   1, J=  79


 TOTAL NUMBER OF POINT SOURCES/SINKS PRESENT IN THE FLOW MODEL =    62

 MAXIMUM STEPSIZE WHICH MEETS STABILITY CRITERION OF THE SINK & SOURCE TERM
 =  62.91    (WHEN MIN. R.F.=1)  AT K=   2, I=   1, J= 120

 MAXIMUM STEPSIZE WHICH MEETS STABILITY CRITERION OF THE DISPERSION TERM
 =  20.29    (WHEN MIN. R.F.=1)  AT K=   1, I=   1, J=  31
     1 CALLS TO GCG PACKAGE FOR TRANSPORT TIME STEP   4 IN FLOW TIME STEP 124 STRESS PERIOD   1
     6 TOTAL ITERATIONS
 
 SOLVING FOR HEAD 
 FLOW MODEL IS TRANSIENT
 FLOW MODEL CONTAINS CONSTANT-HEAD CELLS


 MAXIMUM STEPSIZE DURING WHICH ANY PARTICLE CANNOT MOVE MORE THAN ONE CELL
 =  5.203    (WHEN MIN. R.F.=1)  AT K=   3, I=   1, J=  72

 MAXIMUM STEPSIZE WHICH MEETS STABILITY CRITERION OF THE ADVECTION TERM
 (FOR PURE FINITE-DIFFERENCE OPTION, MIXELM=0) 
 =  2.815    (WHEN MIN. R.F.=1)  AT K=   2, I=   1, J=  79


 TOTAL NUMBER OF POINT SOURCES/SINKS PRESENT IN THE FLOW MODEL =    62

 MAXIMUM STEPSIZE WHICH MEETS STABILITY CRITERION OF THE SINK & SOURCE TERM
 =  62.29    (WHEN MIN. R.F.=1)  AT K=   2, I=   1, J= 120

 MAXIMUM STEPSIZE WHICH MEETS STABILITY CRITERION OF THE DISPERSION TERM
 =  20.29    (WHEN MIN. R.F.=1)  AT K=   1, I=   1, J=  31
     1 CALLS TO GCG PACKAGE FOR TRANSPORT TIME STEP   5 IN FLOW TIME STEP 124 STRESS PERIOD   1
     5 TOTAL ITERATIONS
  MAXIMUM CONCENTRATION CHANGES FOR EACH ITERATION:
  MAX. CHANGE LAYER,ROW,COL MAX. CHANGE LAYER,ROW,COL MAX. CHANGE LAYER,ROW,COL MAX. CHANGE LAYER,ROW,COL MAX. CHANGE LAYER,ROW,COL
 ------------------------------------------------------------------------------------------------------------------------------------
   0.2144E-01 (  2,  1, 80)  0.3574E-03 (  2,  1, 80)  0.1179E-04 (  3,  1, 78)  0.2721E-06 (  4,  1, 78)  0.7560E-08 (  3,  1, 45)


                                          ================================================
                                                         FROM TIME =   1240.0     TO    1250.0    

 
 SOLVING FOR HEAD 
 FLOW MODEL IS TRANSIENT
 FLOW MODEL CONTAINS CONSTANT-HEAD CELLS


 MAXIMUM STEPSIZE DURING WHICH ANY PARTICLE CANNOT MOVE MORE THAN ONE CELL
 =  5.174    (WHEN MIN. R.F.=1)  AT K=   3, I=   1, J=  72

 MAXIMUM STEPSIZE WHICH MEETS STABILITY CRITERION OF THE ADVECTION TERM
 (FOR PURE FINITE-DIFFERENCE OPTION, MIXELM=0) 
 =  2.908    (WHEN MIN. R.F.=1)  AT K=   2, I=   1, J=  79


 TOTAL NUMBER OF POINT SOURCES/SINKS PRESENT IN THE FLOW MODEL =    62

 MAXIMUM STEPSIZE WHICH MEETS STABILITY CRITERION OF THE SINK & SOURCE TERM
 =  63.88    (WHEN MIN. R.F.=1)  AT K=   2, I=   1, J= 120

 MAXIMUM STEPSIZE WHICH MEETS STABILITY CRITERION OF THE DISPERSION TERM
 =  20.29    (WHEN MIN. R.F.=1)  AT K=   1, I=   1, J=  31


     1 CALLS TO GCG PACKAGE FOR TRANSPORT TIME STEP   1 IN FLOW TIME STEP 125 STRESS PERIOD   1
     6 TOTAL ITERATIONS

 NO OUTPUT CONTROL FOR STRESS PERIOD    1   TIME STEP 125
 
 SOLVING FOR HEAD 
 FLOW MODEL IS TRANSIENT
 FLOW MODEL CONTAINS CONSTANT-HEAD CELLS


 MAXIMUM STEPSIZE DURING WHICH ANY PARTICLE CANNOT MOVE MORE THAN ONE CELL
 =  5.076    (WHEN MIN. R.F.=1)  AT K=   4, I=   1, J=  72

 MAXIMUM STEPSIZE WHICH MEETS STABILITY CRITERION OF THE ADVECTION TERM
 (FOR PURE FINITE-DIFFERENCE OPTION, MIXELM=0) 
 =  3.049    (WHEN MIN. R.F.=1)  AT K=   2, I=   1, J=  41


 TOTAL NUMBER OF POINT SOURCES/SINKS PRESENT IN THE FLOW MODEL =    62

 MAXIMUM STEPSIZE WHICH MEETS STABILITY CRITERION OF THE SINK & SOURCE TERM
 =  62.33    (WHEN MIN. R.F.=1)  AT K=   2, I=   1, J= 120

 MAXIMUM STEPSIZE WHICH MEETS STABILITY CRITERION OF THE DISPERSION TERM
 =  20.29    (WHEN MIN. R.F.=1)  AT K=   1, I=   1, J=  31
     1 CALLS TO GCG PACKAGE FOR TRANSPORT TIME STEP   2 IN FLOW TIME STEP 125 STRESS PERIOD   1
     6 TOTAL ITERATIONS
 
 SOLVING FOR HEAD 
 FLOW MODEL IS TRANSIENT
 FLOW MODEL CONTAINS CONSTANT-HEAD CELLS


 MAXIMUM STEPSIZE DURING WHICH ANY PARTICLE CANNOT MOVE MORE THAN ONE CELL
 =  5.029    (WHEN MIN. R.F.=1)  AT K=   4, I=   1, J=  72

 MAXIMUM STEPSIZE WHICH MEETS STABILITY CRITERION OF THE ADVECTION TERM
 (FOR PURE FINITE-DIFFERENCE OPTION, MIXELM=0) 
 =  2.996    (WHEN MIN. R.F.=1)  AT K=   2, I=   1, J=  78


 TOTAL NUMBER OF POINT SOURCES/SINKS PRESENT IN THE FLOW MODEL =    62

 MAXIMUM STEPSIZE WHICH MEETS STABILITY CRITERION OF THE SINK & SOURCE TERM
 =  62.96    (WHEN MIN. R.F.=1)  AT K=   2, I=   1, J= 120

 MAXIMUM STEPSIZE WHICH MEETS STABILITY CRITERION OF THE DISPERSION TERM
 =  20.29    (WHEN MIN. R.F.=1)  AT K=   1, I=   1, J=  31
     1 CALLS TO GCG PACKAGE FOR TRANSPORT TIME STEP   3 IN FLOW TIME STEP 125 STRESS PERIOD   1
     6 TOTAL ITERATIONS
 
 SOLVING FOR HEAD 
 FLOW MODEL IS TRANSIENT
 FLOW MODEL CONTAINS CONSTANT-HEAD CELLS


 MAXIMUM STEPSIZE DURING WHICH ANY PARTICLE CANNOT MOVE MORE THAN ONE CELL
 =  5.044    (WHEN MIN. R.F.=1)  AT K=   4, I=   1, J=  72

 MAXIMUM STEPSIZE WHICH MEETS STABILITY CRITERION OF THE ADVECTION TERM
 (FOR PURE FINITE-DIFFERENCE OPTION, MIXELM=0) 
 =  2.886    (WHEN MIN. R.F.=1)  AT K=   2, I=   1, J=  78


 TOTAL NUMBER OF POINT SOURCES/SINKS PRESENT IN THE FLOW MODEL =    62

 MAXIMUM STEPSIZE WHICH MEETS STABILITY CRITERION OF THE SINK & SOURCE TERM
 =  63.68    (WHEN MIN. R.F.=1)  AT K=   2, I=   1, J= 120

 MAXIMUM STEPSIZE WHICH MEETS STABILITY CRITERION OF THE DISPERSION TERM
 =  20.29    (WHEN MIN. R.F.=1)  AT K=   1, I=   1, J=  31
     1 CALLS TO GCG PACKAGE FOR TRANSPORT TIME STEP   4 IN FLOW TIME STEP 125 STRESS PERIOD   1
     6 TOTAL ITERATIONS
 
 SOLVING FOR HEAD 
 FLOW MODEL IS TRANSIENT
 FLOW MODEL CONTAINS CONSTANT-HEAD CELLS


 MAXIMUM STEPSIZE DURING WHICH ANY PARTICLE CANNOT MOVE MORE THAN ONE CELL
 =  5.130    (WHEN MIN. R.F.=1)  AT K=   4, I=   1, J=  72

 MAXIMUM STEPSIZE WHICH MEETS STABILITY CRITERION OF THE ADVECTION TERM
 (FOR PURE FINITE-DIFFERENCE OPTION, MIXELM=0) 
 =  2.895    (WHEN MIN. R.F.=1)  AT K=   2, I=   1, J=  78


 TOTAL NUMBER OF POINT SOURCES/SINKS PRESENT IN THE FLOW MODEL =    62

 MAXIMUM STEPSIZE WHICH MEETS STABILITY CRITERION OF THE SINK & SOURCE TERM
 =  63.15    (WHEN MIN. R.F.=1)  AT K=   2, I=   1, J= 120

 MAXIMUM STEPSIZE WHICH MEETS STABILITY CRITERION OF THE DISPERSION TERM
 =  20.29    (WHEN MIN. R.F.=1)  AT K=   1, I=   1, J=  31
     1 CALLS TO GCG PACKAGE FOR TRANSPORT TIME STEP   5 IN FLOW TIME STEP 125 STRESS PERIOD   1
     5 TOTAL ITERATIONS
  MAXIMUM CONCENTRATION CHANGES FOR EACH ITERATION:
  MAX. CHANGE LAYER,ROW,COL MAX. CHANGE LAYER,ROW,COL MAX. CHANGE LAYER,ROW,COL MAX. CHANGE LAYER,ROW,COL MAX. CHANGE LAYER,ROW,COL
 ------------------------------------------------------------------------------------------------------------------------------------
   0.1988E-01 (  2,  1, 79)  0.3834E-03 (  2,  1, 79)  0.8645E-05 (  2,  1, 80)  0.2394E-06 (  3,  1, 80)  0.6195E-08 (  3,  1, 81)


                                          ================================================
                                                         FROM TIME =   1250.0     TO    1260.0    

 
 SOLVING FOR HEAD 
 FLOW MODEL IS TRANSIENT
 FLOW MODEL CONTAINS CONSTANT-HEAD CELLS


 MAXIMUM STEPSIZE DURING WHICH ANY PARTICLE CANNOT MOVE MORE THAN ONE CELL
 =  5.195    (WHEN MIN. R.F.=1)  AT K=   4, I=   1, J=  72

 MAXIMUM STEPSIZE WHICH MEETS STABILITY CRITERION OF THE ADVECTION TERM
 (FOR PURE FINITE-DIFFERENCE OPTION, MIXELM=0) 
 =  2.949    (WHEN MIN. R.F.=1)  AT K=   2, I=   1, J=  78


 TOTAL NUMBER OF POINT SOURCES/SINKS PRESENT IN THE FLOW MODEL =    62

 MAXIMUM STEPSIZE WHICH MEETS STABILITY CRITERION OF THE SINK & SOURCE TERM
 =  65.91    (WHEN MIN. R.F.=1)  AT K=   2, I=   1, J= 120

 MAXIMUM STEPSIZE WHICH MEETS STABILITY CRITERION OF THE DISPERSION TERM
 =  20.29    (WHEN MIN. R.F.=1)  AT K=   1, I=   1, J=  31


     1 CALLS TO GCG PACKAGE FOR TRANSPORT TIME STEP   1 IN FLOW TIME STEP 126 STRESS PERIOD   1
     6 TOTAL ITERATIONS

 NO OUTPUT CONTROL FOR STRESS PERIOD    1   TIME STEP 126
 
 SOLVING FOR HEAD 
 FLOW MODEL IS TRANSIENT
 FLOW MODEL CONTAINS CONSTANT-HEAD CELLS


 MAXIMUM STEPSIZE DURING WHICH ANY PARTICLE CANNOT MOVE MORE THAN ONE CELL
 =  5.297    (WHEN MIN. R.F.=1)  AT K=   5, I=   1, J=  72

 MAXIMUM STEPSIZE WHICH MEETS STABILITY CRITERION OF THE ADVECTION TERM
 (FOR PURE FINITE-DIFFERENCE OPTION, MIXELM=0) 
 =  2.970    (WHEN MIN. R.F.=1)  AT K=   2, I=   1, J=  42


 TOTAL NUMBER OF POINT SOURCES/SINKS PRESENT IN THE FLOW MODEL =    62

 MAXIMUM STEPSIZE WHICH MEETS STABILITY CRITERION OF THE SINK & SOURCE TERM
 =  64.47    (WHEN MIN. R.F.=1)  AT K=   2, I=   1, J= 120

 MAXIMUM STEPSIZE WHICH MEETS STABILITY CRITERION OF THE DISPERSION TERM
 =  20.29    (WHEN MIN. R.F.=1)  AT K=   1, I=   1, J=  31
     1 CALLS TO GCG PACKAGE FOR TRANSPORT TIME STEP   2 IN FLOW TIME STEP 126 STRESS PERIOD   1
     6 TOTAL ITERATIONS
 
 SOLVING FOR HEAD 
 FLOW MODEL IS TRANSIENT
 FLOW MODEL CONTAINS CONSTANT-HEAD CELLS


 MAXIMUM STEPSIZE DURING WHICH ANY PARTICLE CANNOT MOVE MORE THAN ONE CELL
 =  5.394    (WHEN MIN. R.F.=1)  AT K=   5, I=   1, J=  72

 MAXIMUM STEPSIZE WHICH MEETS STABILITY CRITERION OF THE ADVECTION TERM
 (FOR PURE FINITE-DIFFERENCE OPTION, MIXELM=0) 
 =  3.012    (WHEN MIN. R.F.=1)  AT K=   2, I=   1, J=  42


 TOTAL NUMBER OF POINT SOURCES/SINKS PRESENT IN THE FLOW MODEL =    62

 MAXIMUM STEPSIZE WHICH MEETS STABILITY CRITERION OF THE SINK & SOURCE TERM
 =  64.53    (WHEN MIN. R.F.=1)  AT K=   2, I=   1, J= 120

 MAXIMUM STEPSIZE WHICH MEETS STABILITY CRITERION OF THE DISPERSION TERM
 =  20.29    (WHEN MIN. R.F.=1)  AT K=   1, I=   1, J=  31
     1 CALLS TO GCG PACKAGE FOR TRANSPORT TIME STEP   3 IN FLOW TIME STEP 126 STRESS PERIOD   1
     6 TOTAL ITERATIONS
 
 SOLVING FOR HEAD 
 FLOW MODEL IS TRANSIENT
 FLOW MODEL CONTAINS CONSTANT-HEAD CELLS


 MAXIMUM STEPSIZE DURING WHICH ANY PARTICLE CANNOT MOVE MORE THAN ONE CELL
 =  5.465    (WHEN MIN. R.F.=1)  AT K=   2, I=   1, J=  41

 MAXIMUM STEPSIZE WHICH MEETS STABILITY CRITERION OF THE ADVECTION TERM
 (FOR PURE FINITE-DIFFERENCE OPTION, MIXELM=0) 
 =  3.000    (WHEN MIN. R.F.=1)  AT K=   2, I=   1, J=  77


 TOTAL NUMBER OF POINT SOURCES/SINKS PRESENT IN THE FLOW MODEL =    62

 MAXIMUM STEPSIZE WHICH MEETS STABILITY CRITERION OF THE SINK & SOURCE TERM
 =  64.91    (WHEN MIN. R.F.=1)  AT K=   2, I=   1, J= 120

 MAXIMUM STEPSIZE WHICH MEETS STABILITY CRITERION OF THE DISPERSION TERM
 =  20.29    (WHEN MIN. R.F.=1)  AT K=   1, I=   1, J=  31
     1 CALLS TO GCG PACKAGE FOR TRANSPORT TIME STEP   4 IN FLOW TIME STEP 126 STRESS PERIOD   1
     6 TOTAL ITERATIONS
 
 SOLVING FOR HEAD 
 FLOW MODEL IS TRANSIENT
 FLOW MODEL CONTAINS CONSTANT-HEAD CELLS


 MAXIMUM STEPSIZE DURING WHICH ANY PARTICLE CANNOT MOVE MORE THAN ONE CELL
 =  5.466    (WHEN MIN. R.F.=1)  AT K=   2, I=   1, J=  41

 MAXIMUM STEPSIZE WHICH MEETS STABILITY CRITERION OF THE ADVECTION TERM
 (FOR PURE FINITE-DIFFERENCE OPTION, MIXELM=0) 
 =  2.927    (WHEN MIN. R.F.=1)  AT K=   2, I=   1, J=  77


 TOTAL NUMBER OF POINT SOURCES/SINKS PRESENT IN THE FLOW MODEL =    62

 MAXIMUM STEPSIZE WHICH MEETS STABILITY CRITERION OF THE SINK & SOURCE TERM
 =  64.20    (WHEN MIN. R.F.=1)  AT K=   2, I=   1, J= 120

 MAXIMUM STEPSIZE WHICH MEETS STABILITY CRITERION OF THE DISPERSION TERM
 =  20.29    (WHEN MIN. R.F.=1)  AT K=   1, I=   1, J=  31
     1 CALLS TO GCG PACKAGE FOR TRANSPORT TIME STEP   5 IN FLOW TIME STEP 126 STRESS PERIOD   1
     5 TOTAL ITERATIONS
  MAXIMUM CONCENTRATION CHANGES FOR EACH ITERATION:
  MAX. CHANGE LAYER,ROW,COL MAX. CHANGE LAYER,ROW,COL MAX. CHANGE LAYER,ROW,COL MAX. CHANGE LAYER,ROW,COL MAX. CHANGE LAYER,ROW,COL
 ------------------------------------------------------------------------------------------------------------------------------------
   0.1729E-01 (  2,  1, 78)  0.3300E-03 (  2,  1, 78)  0.6813E-05 (  2,  1, 79)  0.2518E-06 (  3,  1, 74)  0.4982E-08 (  4,  1, 74)


                                          ================================================
                                                         FROM TIME =   1260.0     TO    1270.0    

 
 SOLVING FOR HEAD 
 FLOW MODEL IS TRANSIENT
 FLOW MODEL CONTAINS CONSTANT-HEAD CELLS


 MAXIMUM STEPSIZE DURING WHICH ANY PARTICLE CANNOT MOVE MORE THAN ONE CELL
 =  5.494    (WHEN MIN. R.F.=1)  AT K=   2, I=   1, J=  41

 MAXIMUM STEPSIZE WHICH MEETS STABILITY CRITERION OF THE ADVECTION TERM
 (FOR PURE FINITE-DIFFERENCE OPTION, MIXELM=0) 
 =  2.938    (WHEN MIN. R.F.=1)  AT K=   2, I=   1, J=  77


 TOTAL NUMBER OF POINT SOURCES/SINKS PRESENT IN THE FLOW MODEL =    62

 MAXIMUM STEPSIZE WHICH MEETS STABILITY CRITERION OF THE SINK & SOURCE TERM
 =  67.47    (WHEN MIN. R.F.=1)  AT K=   2, I=   1, J= 120

 MAXIMUM STEPSIZE WHICH MEETS STABILITY CRITERION OF THE DISPERSION TERM
 =  20.29    (WHEN MIN. R.F.=1)  AT K=   1, I=   1, J=  31


     1 CALLS TO GCG PACKAGE FOR TRANSPORT TIME STEP   1 IN FLOW TIME STEP 127 STRESS PERIOD   1
     6 TOTAL ITERATIONS

 NO OUTPUT CONTROL FOR STRESS PERIOD    1   TIME STEP 127
 
 SOLVING FOR HEAD 
 FLOW MODEL IS TRANSIENT
 FLOW MODEL CONTAINS CONSTANT-HEAD CELLS


 MAXIMUM STEPSIZE DURING WHICH ANY PARTICLE CANNOT MOVE MORE THAN ONE CELL
 =  5.403    (WHEN MIN. R.F.=1)  AT K=   3, I=   1, J=  50

 MAXIMUM STEPSIZE WHICH MEETS STABILITY CRITERION OF THE ADVECTION TERM
 (FOR PURE FINITE-DIFFERENCE OPTION, MIXELM=0) 
 =  3.006    (WHEN MIN. R.F.=1)  AT K=   2, I=   1, J=  43


 TOTAL NUMBER OF POINT SOURCES/SINKS PRESENT IN THE FLOW MODEL =    62

 MAXIMUM STEPSIZE WHICH MEETS STABILITY CRITERION OF THE SINK & SOURCE TERM
 =  65.98    (WHEN MIN. R.F.=1)  AT K=   2, I=   1, J= 120

 MAXIMUM STEPSIZE WHICH MEETS STABILITY CRITERION OF THE DISPERSION TERM
 =  20.29    (WHEN MIN. R.F.=1)  AT K=   1, I=   1, J=  31
     1 CALLS TO GCG PACKAGE FOR TRANSPORT TIME STEP   2 IN FLOW TIME STEP 127 STRESS PERIOD   1
     5 TOTAL ITERATIONS
 
 SOLVING FOR HEAD 
 FLOW MODEL IS TRANSIENT
 FLOW MODEL CONTAINS CONSTANT-HEAD CELLS


 MAXIMUM STEPSIZE DURING WHICH ANY PARTICLE CANNOT MOVE MORE THAN ONE CELL
 =  5.197    (WHEN MIN. R.F.=1)  AT K=   4, I=   1, J=  50

 MAXIMUM STEPSIZE WHICH MEETS STABILITY CRITERION OF THE ADVECTION TERM
 (FOR PURE FINITE-DIFFERENCE OPTION, MIXELM=0) 
 =  3.023    (WHEN MIN. R.F.=1)  AT K=   2, I=   1, J=  43


 TOTAL NUMBER OF POINT SOURCES/SINKS PRESENT IN THE FLOW MODEL =    62

 MAXIMUM STEPSIZE WHICH MEETS STABILITY CRITERION OF THE SINK & SOURCE TERM
 =  66.01    (WHEN MIN. R.F.=1)  AT K=   2, I=   1, J= 120

 MAXIMUM STEPSIZE WHICH MEETS STABILITY CRITERION OF THE DISPERSION TERM
 =  20.29    (WHEN MIN. R.F.=1)  AT K=   1, I=   1, J=  31
     1 CALLS TO GCG PACKAGE FOR TRANSPORT TIME STEP   3 IN FLOW TIME STEP 127 STRESS PERIOD   1
     5 TOTAL ITERATIONS



 >>>>>>>>>>>>>>>>>>>>>>>>>>>>>>>>>>>>>>>>>>>>>>>>>>>>>>>FOR COMPONENT NO. 01<<<<<<<<<<<<<<<<<<<<<<<<<<<<<<<<<<<<<<<<<<<<<<<<<<<<<<<


                                            -------------------------------------------
                                                      TRANSPORT STEP NO.    3
                                            -------------------------------------------

 TOTAL ELAPSED TIME SINCE BEGINNING OF SIMULATION =   1266.200    D   
 .....................................................................

                     CUMULATIVE MASS BUDGETS AT END OF TRANSPORT STEP    3, TIME STEP  127, STRESS PERIOD    1
                     ------------------------------------------------------------------------------------------

                                                             IN                           OUT
                                                      ----------------             ----------------
                               CONSTANT CONCENTRATION:    952304.8                   -254995.2    
                                        CONSTANT HEAD:    0.000000                  -0.1467860E-07
                               MASS STOR (FLOW MODEL):    140.3524                   -145.3157    
                                MASS STORAGE (SOLUTE):    1287797.                   -1985102.    
                            ---------------------------------------------------------------------------
                                              [TOTAL]:    2240242.     KG            -2240242.     KG  

                                                          NET (IN - OUT):   0.7058986E-02
                                                   DISCREPANCY (PERCENT):   0.3150993E-06
 
 SOLVING FOR HEAD 
 FLOW MODEL IS TRANSIENT
 FLOW MODEL CONTAINS CONSTANT-HEAD CELLS


 MAXIMUM STEPSIZE DURING WHICH ANY PARTICLE CANNOT MOVE MORE THAN ONE CELL
 =  5.069    (WHEN MIN. R.F.=1)  AT K=   4, I=   1, J=  50

 MAXIMUM STEPSIZE WHICH MEETS STABILITY CRITERION OF THE ADVECTION TERM
 (FOR PURE FINITE-DIFFERENCE OPTION, MIXELM=0) 
 =  3.114    (WHEN MIN. R.F.=1)  AT K=   2, I=   1, J=  43


 TOTAL NUMBER OF POINT SOURCES/SINKS PRESENT IN THE FLOW MODEL =    62

 MAXIMUM STEPSIZE WHICH MEETS STABILITY CRITERION OF THE SINK & SOURCE TERM
 =  67.47    (WHEN MIN. R.F.=1)  AT K=   2, I=   1, J= 120

 MAXIMUM STEPSIZE WHICH MEETS STABILITY CRITERION OF THE DISPERSION TERM
 =  20.29    (WHEN MIN. R.F.=1)  AT K=   1, I=   1, J=  31
     1 CALLS TO GCG PACKAGE FOR TRANSPORT TIME STEP   4 IN FLOW TIME STEP 127 STRESS PERIOD   1
     6 TOTAL ITERATIONS
 
 SOLVING FOR HEAD 
 FLOW MODEL IS TRANSIENT
 FLOW MODEL CONTAINS CONSTANT-HEAD CELLS


 MAXIMUM STEPSIZE DURING WHICH ANY PARTICLE CANNOT MOVE MORE THAN ONE CELL
 =  4.965    (WHEN MIN. R.F.=1)  AT K=   4, I=   1, J=  50

 MAXIMUM STEPSIZE WHICH MEETS STABILITY CRITERION OF THE ADVECTION TERM
 (FOR PURE FINITE-DIFFERENCE OPTION, MIXELM=0) 
 =  3.104    (WHEN MIN. R.F.=1)  AT K=   2, I=   1, J=  76


 TOTAL NUMBER OF POINT SOURCES/SINKS PRESENT IN THE FLOW MODEL =    62

 MAXIMUM STEPSIZE WHICH MEETS STABILITY CRITERION OF THE SINK & SOURCE TERM
 =  66.46    (WHEN MIN. R.F.=1)  AT K=   2, I=   1, J= 120

 MAXIMUM STEPSIZE WHICH MEETS STABILITY CRITERION OF THE DISPERSION TERM
 =  20.29    (WHEN MIN. R.F.=1)  AT K=   1, I=   1, J=  31
     1 CALLS TO GCG PACKAGE FOR TRANSPORT TIME STEP   5 IN FLOW TIME STEP 127 STRESS PERIOD   1
     5 TOTAL ITERATIONS
  MAXIMUM CONCENTRATION CHANGES FOR EACH ITERATION:
  MAX. CHANGE LAYER,ROW,COL MAX. CHANGE LAYER,ROW,COL MAX. CHANGE LAYER,ROW,COL MAX. CHANGE LAYER,ROW,COL MAX. CHANGE LAYER,ROW,COL
 ------------------------------------------------------------------------------------------------------------------------------------
   0.2163E-01 (  2,  1, 42)  0.5594E-03 (  2,  1, 76)  0.1444E-04 (  3,  1, 76)  0.4931E-06 (  3,  1, 83)  0.2006E-07 (  3,  1, 79)


                                          ================================================
                                                         FROM TIME =   1270.0     TO    1280.0    

 
 SOLVING FOR HEAD 
 FLOW MODEL IS TRANSIENT
 FLOW MODEL CONTAINS CONSTANT-HEAD CELLS


 MAXIMUM STEPSIZE DURING WHICH ANY PARTICLE CANNOT MOVE MORE THAN ONE CELL
 =  4.921    (WHEN MIN. R.F.=1)  AT K=   4, I=   1, J=  50

 MAXIMUM STEPSIZE WHICH MEETS STABILITY CRITERION OF THE ADVECTION TERM
 (FOR PURE FINITE-DIFFERENCE OPTION, MIXELM=0) 
 =  3.052    (WHEN MIN. R.F.=1)  AT K=   2, I=   1, J=  76


 TOTAL NUMBER OF POINT SOURCES/SINKS PRESENT IN THE FLOW MODEL =    62

 MAXIMUM STEPSIZE WHICH MEETS STABILITY CRITERION OF THE SINK & SOURCE TERM
 =  68.53    (WHEN MIN. R.F.=1)  AT K=   2, I=   1, J= 120

 MAXIMUM STEPSIZE WHICH MEETS STABILITY CRITERION OF THE DISPERSION TERM
 =  20.29    (WHEN MIN. R.F.=1)  AT K=   1, I=   1, J=  31


     1 CALLS TO GCG PACKAGE FOR TRANSPORT TIME STEP   1 IN FLOW TIME STEP 128 STRESS PERIOD   1
     6 TOTAL ITERATIONS

 NO OUTPUT CONTROL FOR STRESS PERIOD    1   TIME STEP 128
 
 SOLVING FOR HEAD 
 FLOW MODEL IS TRANSIENT
 FLOW MODEL CONTAINS CONSTANT-HEAD CELLS


 MAXIMUM STEPSIZE DURING WHICH ANY PARTICLE CANNOT MOVE MORE THAN ONE CELL
 =  4.897    (WHEN MIN. R.F.=1)  AT K=   4, I=   1, J=  50

 MAXIMUM STEPSIZE WHICH MEETS STABILITY CRITERION OF THE ADVECTION TERM
 (FOR PURE FINITE-DIFFERENCE OPTION, MIXELM=0) 
 =  3.054    (WHEN MIN. R.F.=1)  AT K=   2, I=   1, J=  76


 TOTAL NUMBER OF POINT SOURCES/SINKS PRESENT IN THE FLOW MODEL =    62

 MAXIMUM STEPSIZE WHICH MEETS STABILITY CRITERION OF THE SINK & SOURCE TERM
 =  67.64    (WHEN MIN. R.F.=1)  AT K=   2, I=   1, J= 120

 MAXIMUM STEPSIZE WHICH MEETS STABILITY CRITERION OF THE DISPERSION TERM
 =  20.29    (WHEN MIN. R.F.=1)  AT K=   1, I=   1, J=  31
     1 CALLS TO GCG PACKAGE FOR TRANSPORT TIME STEP   2 IN FLOW TIME STEP 128 STRESS PERIOD   1
     6 TOTAL ITERATIONS
 
 SOLVING FOR HEAD 
 FLOW MODEL IS TRANSIENT
 FLOW MODEL CONTAINS CONSTANT-HEAD CELLS


 MAXIMUM STEPSIZE DURING WHICH ANY PARTICLE CANNOT MOVE MORE THAN ONE CELL
 =  4.915    (WHEN MIN. R.F.=1)  AT K=   4, I=   1, J=  50

 MAXIMUM STEPSIZE WHICH MEETS STABILITY CRITERION OF THE ADVECTION TERM
 (FOR PURE FINITE-DIFFERENCE OPTION, MIXELM=0) 
 =  3.072    (WHEN MIN. R.F.=1)  AT K=   2, I=   1, J=  44


 TOTAL NUMBER OF POINT SOURCES/SINKS PRESENT IN THE FLOW MODEL =    62

 MAXIMUM STEPSIZE WHICH MEETS STABILITY CRITERION OF THE SINK & SOURCE TERM
 =  68.03    (WHEN MIN. R.F.=1)  AT K=   2, I=   1, J= 120

 MAXIMUM STEPSIZE WHICH MEETS STABILITY CRITERION OF THE DISPERSION TERM
 =  20.29    (WHEN MIN. R.F.=1)  AT K=   1, I=   1, J=  31
     1 CALLS TO GCG PACKAGE FOR TRANSPORT TIME STEP   3 IN FLOW TIME STEP 128 STRESS PERIOD   1
     6 TOTAL ITERATIONS
 
 SOLVING FOR HEAD 
 FLOW MODEL IS TRANSIENT
 FLOW MODEL CONTAINS CONSTANT-HEAD CELLS


 MAXIMUM STEPSIZE DURING WHICH ANY PARTICLE CANNOT MOVE MORE THAN ONE CELL
 =  4.963    (WHEN MIN. R.F.=1)  AT K=   4, I=   1, J=  50

 MAXIMUM STEPSIZE WHICH MEETS STABILITY CRITERION OF THE ADVECTION TERM
 (FOR PURE FINITE-DIFFERENCE OPTION, MIXELM=0) 
 =  3.145    (WHEN MIN. R.F.=1)  AT K=   2, I=   1, J=  44


 TOTAL NUMBER OF POINT SOURCES/SINKS PRESENT IN THE FLOW MODEL =    62

 MAXIMUM STEPSIZE WHICH MEETS STABILITY CRITERION OF THE SINK & SOURCE TERM
 =  68.49    (WHEN MIN. R.F.=1)  AT K=   2, I=   1, J= 120

 MAXIMUM STEPSIZE WHICH MEETS STABILITY CRITERION OF THE DISPERSION TERM
 =  20.29    (WHEN MIN. R.F.=1)  AT K=   1, I=   1, J=  31
     1 CALLS TO GCG PACKAGE FOR TRANSPORT TIME STEP   4 IN FLOW TIME STEP 128 STRESS PERIOD   1
     6 TOTAL ITERATIONS
 
 SOLVING FOR HEAD 
 FLOW MODEL IS TRANSIENT
 FLOW MODEL CONTAINS CONSTANT-HEAD CELLS


 MAXIMUM STEPSIZE DURING WHICH ANY PARTICLE CANNOT MOVE MORE THAN ONE CELL
 =  5.033    (WHEN MIN. R.F.=1)  AT K=   5, I=   1, J=  50

 MAXIMUM STEPSIZE WHICH MEETS STABILITY CRITERION OF THE ADVECTION TERM
 (FOR PURE FINITE-DIFFERENCE OPTION, MIXELM=0) 
 =  3.368    (WHEN MIN. R.F.=1)  AT K=   2, I=   1, J=  44


 TOTAL NUMBER OF POINT SOURCES/SINKS PRESENT IN THE FLOW MODEL =    62

 MAXIMUM STEPSIZE WHICH MEETS STABILITY CRITERION OF THE SINK & SOURCE TERM
 =  67.01    (WHEN MIN. R.F.=1)  AT K=   2, I=   1, J= 120

 MAXIMUM STEPSIZE WHICH MEETS STABILITY CRITERION OF THE DISPERSION TERM
 =  20.29    (WHEN MIN. R.F.=1)  AT K=   1, I=   1, J=  31
     1 CALLS TO GCG PACKAGE FOR TRANSPORT TIME STEP   5 IN FLOW TIME STEP 128 STRESS PERIOD   1
     4 TOTAL ITERATIONS
  MAXIMUM CONCENTRATION CHANGES FOR EACH ITERATION:
  MAX. CHANGE LAYER,ROW,COL MAX. CHANGE LAYER,ROW,COL MAX. CHANGE LAYER,ROW,COL MAX. CHANGE LAYER,ROW,COL MAX. CHANGE LAYER,ROW,COL
 ------------------------------------------------------------------------------------------------------------------------------------
   0.1125E-01 (  2,  1, 77)  0.1687E-03 (  2,  1, 75)  0.2618E-05 (  3,  1, 75)  0.3749E-07 (  3,  1, 82)


                                          ================================================
                                                         FROM TIME =   1280.0     TO    1290.0    

 
 SOLVING FOR HEAD 
 FLOW MODEL IS TRANSIENT
 FLOW MODEL CONTAINS CONSTANT-HEAD CELLS


 MAXIMUM STEPSIZE DURING WHICH ANY PARTICLE CANNOT MOVE MORE THAN ONE CELL
 =  5.049    (WHEN MIN. R.F.=1)  AT K=   5, I=   1, J=  50

 MAXIMUM STEPSIZE WHICH MEETS STABILITY CRITERION OF THE ADVECTION TERM
 (FOR PURE FINITE-DIFFERENCE OPTION, MIXELM=0) 
 =  3.394    (WHEN MIN. R.F.=1)  AT K=   2, I=   1, J=  75


 TOTAL NUMBER OF POINT SOURCES/SINKS PRESENT IN THE FLOW MODEL =    62

 MAXIMUM STEPSIZE WHICH MEETS STABILITY CRITERION OF THE SINK & SOURCE TERM
 =  71.23    (WHEN MIN. R.F.=1)  AT K=   2, I=   1, J= 120

 MAXIMUM STEPSIZE WHICH MEETS STABILITY CRITERION OF THE DISPERSION TERM
 =  20.29    (WHEN MIN. R.F.=1)  AT K=   1, I=   1, J=  31


     1 CALLS TO GCG PACKAGE FOR TRANSPORT TIME STEP   1 IN FLOW TIME STEP 129 STRESS PERIOD   1
     6 TOTAL ITERATIONS

 NO OUTPUT CONTROL FOR STRESS PERIOD    1   TIME STEP 129
 
 SOLVING FOR HEAD 
 FLOW MODEL IS TRANSIENT
 FLOW MODEL CONTAINS CONSTANT-HEAD CELLS


 MAXIMUM STEPSIZE DURING WHICH ANY PARTICLE CANNOT MOVE MORE THAN ONE CELL
 =  5.115    (WHEN MIN. R.F.=1)  AT K=   5, I=   1, J=  50

 MAXIMUM STEPSIZE WHICH MEETS STABILITY CRITERION OF THE ADVECTION TERM
 (FOR PURE FINITE-DIFFERENCE OPTION, MIXELM=0) 
 =  3.257    (WHEN MIN. R.F.=1)  AT K=   2, I=   1, J=  75


 TOTAL NUMBER OF POINT SOURCES/SINKS PRESENT IN THE FLOW MODEL =    62

 MAXIMUM STEPSIZE WHICH MEETS STABILITY CRITERION OF THE SINK & SOURCE TERM
 =  69.10    (WHEN MIN. R.F.=1)  AT K=   2, I=   1, J= 120

 MAXIMUM STEPSIZE WHICH MEETS STABILITY CRITERION OF THE DISPERSION TERM
 =  20.29    (WHEN MIN. R.F.=1)  AT K=   1, I=   1, J=  31
     1 CALLS TO GCG PACKAGE FOR TRANSPORT TIME STEP   2 IN FLOW TIME STEP 129 STRESS PERIOD   1
     6 TOTAL ITERATIONS
 
 SOLVING FOR HEAD 
 FLOW MODEL IS TRANSIENT
 FLOW MODEL CONTAINS CONSTANT-HEAD CELLS


 MAXIMUM STEPSIZE DURING WHICH ANY PARTICLE CANNOT MOVE MORE THAN ONE CELL
 =  5.203    (WHEN MIN. R.F.=1)  AT K=   5, I=   1, J=  50

 MAXIMUM STEPSIZE WHICH MEETS STABILITY CRITERION OF THE ADVECTION TERM
 (FOR PURE FINITE-DIFFERENCE OPTION, MIXELM=0) 
 =  3.157    (WHEN MIN. R.F.=1)  AT K=   2, I=   1, J=  45


 TOTAL NUMBER OF POINT SOURCES/SINKS PRESENT IN THE FLOW MODEL =    62

 MAXIMUM STEPSIZE WHICH MEETS STABILITY CRITERION OF THE SINK & SOURCE TERM
 =  68.87    (WHEN MIN. R.F.=1)  AT K=   2, I=   1, J= 120

 MAXIMUM STEPSIZE WHICH MEETS STABILITY CRITERION OF THE DISPERSION TERM
 =  20.29    (WHEN MIN. R.F.=1)  AT K=   1, I=   1, J=  31
     1 CALLS TO GCG PACKAGE FOR TRANSPORT TIME STEP   3 IN FLOW TIME STEP 129 STRESS PERIOD   1
     6 TOTAL ITERATIONS
 
 SOLVING FOR HEAD 
 FLOW MODEL IS TRANSIENT
 FLOW MODEL CONTAINS CONSTANT-HEAD CELLS


 MAXIMUM STEPSIZE DURING WHICH ANY PARTICLE CANNOT MOVE MORE THAN ONE CELL
 =  5.298    (WHEN MIN. R.F.=1)  AT K=   6, I=   1, J=  50

 MAXIMUM STEPSIZE WHICH MEETS STABILITY CRITERION OF THE ADVECTION TERM
 (FOR PURE FINITE-DIFFERENCE OPTION, MIXELM=0) 
 =  3.194    (WHEN MIN. R.F.=1)  AT K=   2, I=   1, J=  45


 TOTAL NUMBER OF POINT SOURCES/SINKS PRESENT IN THE FLOW MODEL =    62

 MAXIMUM STEPSIZE WHICH MEETS STABILITY CRITERION OF THE SINK & SOURCE TERM
 =  68.57    (WHEN MIN. R.F.=1)  AT K=   2, I=   1, J= 120

 MAXIMUM STEPSIZE WHICH MEETS STABILITY CRITERION OF THE DISPERSION TERM
 =  20.29    (WHEN MIN. R.F.=1)  AT K=   1, I=   1, J=  31
     1 CALLS TO GCG PACKAGE FOR TRANSPORT TIME STEP   4 IN FLOW TIME STEP 129 STRESS PERIOD   1
     6 TOTAL ITERATIONS
 
 SOLVING FOR HEAD 
 FLOW MODEL IS TRANSIENT
 FLOW MODEL CONTAINS CONSTANT-HEAD CELLS


 MAXIMUM STEPSIZE DURING WHICH ANY PARTICLE CANNOT MOVE MORE THAN ONE CELL
 =  5.375    (WHEN MIN. R.F.=1)  AT K=   6, I=   1, J=  50

 MAXIMUM STEPSIZE WHICH MEETS STABILITY CRITERION OF THE ADVECTION TERM
 (FOR PURE FINITE-DIFFERENCE OPTION, MIXELM=0) 
 =  3.342    (WHEN MIN. R.F.=1)  AT K=   2, I=   1, J=  45


 TOTAL NUMBER OF POINT SOURCES/SINKS PRESENT IN THE FLOW MODEL =    62

 MAXIMUM STEPSIZE WHICH MEETS STABILITY CRITERION OF THE SINK & SOURCE TERM
 =  64.82    (WHEN MIN. R.F.=1)  AT K=   2, I=   1, J= 120

 MAXIMUM STEPSIZE WHICH MEETS STABILITY CRITERION OF THE DISPERSION TERM
 =  20.29    (WHEN MIN. R.F.=1)  AT K=   1, I=   1, J=  31
     1 CALLS TO GCG PACKAGE FOR TRANSPORT TIME STEP   5 IN FLOW TIME STEP 129 STRESS PERIOD   1
     3 TOTAL ITERATIONS
  MAXIMUM CONCENTRATION CHANGES FOR EACH ITERATION:
  MAX. CHANGE LAYER,ROW,COL MAX. CHANGE LAYER,ROW,COL MAX. CHANGE LAYER,ROW,COL MAX. CHANGE LAYER,ROW,COL MAX. CHANGE LAYER,ROW,COL
 ------------------------------------------------------------------------------------------------------------------------------------
   0.1837E-02 (  2,  1, 76)  0.3567E-05 (  2,  1, 83)  0.8902E-08 (  3,  1, 74)


                                          ================================================
                                                         FROM TIME =   1290.0     TO    1300.0    

 
 SOLVING FOR HEAD 
 FLOW MODEL IS TRANSIENT
 FLOW MODEL CONTAINS CONSTANT-HEAD CELLS


 MAXIMUM STEPSIZE DURING WHICH ANY PARTICLE CANNOT MOVE MORE THAN ONE CELL
 =  5.380    (WHEN MIN. R.F.=1)  AT K=   6, I=   1, J=  50

 MAXIMUM STEPSIZE WHICH MEETS STABILITY CRITERION OF THE ADVECTION TERM
 (FOR PURE FINITE-DIFFERENCE OPTION, MIXELM=0) 
 =  3.354    (WHEN MIN. R.F.=1)  AT K=   2, I=   1, J=  45


 TOTAL NUMBER OF POINT SOURCES/SINKS PRESENT IN THE FLOW MODEL =    62

 MAXIMUM STEPSIZE WHICH MEETS STABILITY CRITERION OF THE SINK & SOURCE TERM
 =  70.34    (WHEN MIN. R.F.=1)  AT K=   2, I=   1, J= 120

 MAXIMUM STEPSIZE WHICH MEETS STABILITY CRITERION OF THE DISPERSION TERM
 =  20.29    (WHEN MIN. R.F.=1)  AT K=   1, I=   1, J=  31


     1 CALLS TO GCG PACKAGE FOR TRANSPORT TIME STEP   1 IN FLOW TIME STEP 130 STRESS PERIOD   1
     6 TOTAL ITERATIONS

 NO OUTPUT CONTROL FOR STRESS PERIOD    1   TIME STEP 130
 
 SOLVING FOR HEAD 
 FLOW MODEL IS TRANSIENT
 FLOW MODEL CONTAINS CONSTANT-HEAD CELLS


 MAXIMUM STEPSIZE DURING WHICH ANY PARTICLE CANNOT MOVE MORE THAN ONE CELL
 =  5.475    (WHEN MIN. R.F.=1)  AT K=   6, I=   1, J=  50

 MAXIMUM STEPSIZE WHICH MEETS STABILITY CRITERION OF THE ADVECTION TERM
 (FOR PURE FINITE-DIFFERENCE OPTION, MIXELM=0) 
 =  3.517    (WHEN MIN. R.F.=1)  AT K=   2, I=   1, J=  82


 TOTAL NUMBER OF POINT SOURCES/SINKS PRESENT IN THE FLOW MODEL =    62

 MAXIMUM STEPSIZE WHICH MEETS STABILITY CRITERION OF THE SINK & SOURCE TERM
 =  68.42    (WHEN MIN. R.F.=1)  AT K=   2, I=   1, J= 120

 MAXIMUM STEPSIZE WHICH MEETS STABILITY CRITERION OF THE DISPERSION TERM
 =  20.29    (WHEN MIN. R.F.=1)  AT K=   1, I=   1, J=  31
     1 CALLS TO GCG PACKAGE FOR TRANSPORT TIME STEP   2 IN FLOW TIME STEP 130 STRESS PERIOD   1
     6 TOTAL ITERATIONS
 
 SOLVING FOR HEAD 
 FLOW MODEL IS TRANSIENT
 FLOW MODEL CONTAINS CONSTANT-HEAD CELLS


 MAXIMUM STEPSIZE DURING WHICH ANY PARTICLE CANNOT MOVE MORE THAN ONE CELL
 =  5.490    (WHEN MIN. R.F.=1)  AT K=   4, I=   1, J=  59

 MAXIMUM STEPSIZE WHICH MEETS STABILITY CRITERION OF THE ADVECTION TERM
 (FOR PURE FINITE-DIFFERENCE OPTION, MIXELM=0) 
 =  3.384    (WHEN MIN. R.F.=1)  AT K=   2, I=   1, J=  81


 TOTAL NUMBER OF POINT SOURCES/SINKS PRESENT IN THE FLOW MODEL =    62

 MAXIMUM STEPSIZE WHICH MEETS STABILITY CRITERION OF THE SINK & SOURCE TERM
 =  67.15    (WHEN MIN. R.F.=1)  AT K=   2, I=   1, J= 120

 MAXIMUM STEPSIZE WHICH MEETS STABILITY CRITERION OF THE DISPERSION TERM
 =  20.29    (WHEN MIN. R.F.=1)  AT K=   1, I=   1, J=  31
     1 CALLS TO GCG PACKAGE FOR TRANSPORT TIME STEP   3 IN FLOW TIME STEP 130 STRESS PERIOD   1
     6 TOTAL ITERATIONS
 
 SOLVING FOR HEAD 
 FLOW MODEL IS TRANSIENT
 FLOW MODEL CONTAINS CONSTANT-HEAD CELLS


 MAXIMUM STEPSIZE DURING WHICH ANY PARTICLE CANNOT MOVE MORE THAN ONE CELL
 =  5.468    (WHEN MIN. R.F.=1)  AT K=   4, I=   1, J=  59

 MAXIMUM STEPSIZE WHICH MEETS STABILITY CRITERION OF THE ADVECTION TERM
 (FOR PURE FINITE-DIFFERENCE OPTION, MIXELM=0) 
 =  3.044    (WHEN MIN. R.F.=1)  AT K=   2, I=   1, J=  81


 TOTAL NUMBER OF POINT SOURCES/SINKS PRESENT IN THE FLOW MODEL =    62

 MAXIMUM STEPSIZE WHICH MEETS STABILITY CRITERION OF THE SINK & SOURCE TERM
 =  66.15    (WHEN MIN. R.F.=1)  AT K=   2, I=   1, J= 120

 MAXIMUM STEPSIZE WHICH MEETS STABILITY CRITERION OF THE DISPERSION TERM
 =  20.29    (WHEN MIN. R.F.=1)  AT K=   1, I=   1, J=  31
     1 CALLS TO GCG PACKAGE FOR TRANSPORT TIME STEP   4 IN FLOW TIME STEP 130 STRESS PERIOD   1
     6 TOTAL ITERATIONS
  MAXIMUM CONCENTRATION CHANGES FOR EACH ITERATION:
  MAX. CHANGE LAYER,ROW,COL MAX. CHANGE LAYER,ROW,COL MAX. CHANGE LAYER,ROW,COL MAX. CHANGE LAYER,ROW,COL MAX. CHANGE LAYER,ROW,COL
 ------------------------------------------------------------------------------------------------------------------------------------
   0.3565E-01 (  2,  1, 82)  0.1309E-02 (  2,  1, 82)  0.6324E-04 (  2,  1, 83)  0.2896E-05 (  2,  1, 77)  0.2457E-06 (  3,  1, 77)
   0.1195E-07 (  4,  1, 77)


                                          ================================================
                                                         FROM TIME =   1300.0     TO    1310.0    

 
 SOLVING FOR HEAD 
 FLOW MODEL IS TRANSIENT
 FLOW MODEL CONTAINS CONSTANT-HEAD CELLS


 MAXIMUM STEPSIZE DURING WHICH ANY PARTICLE CANNOT MOVE MORE THAN ONE CELL
 =  5.451    (WHEN MIN. R.F.=1)  AT K=   4, I=   1, J=  59

 MAXIMUM STEPSIZE WHICH MEETS STABILITY CRITERION OF THE ADVECTION TERM
 (FOR PURE FINITE-DIFFERENCE OPTION, MIXELM=0) 
 =  2.959    (WHEN MIN. R.F.=1)  AT K=   2, I=   1, J=  81


 TOTAL NUMBER OF POINT SOURCES/SINKS PRESENT IN THE FLOW MODEL =    62

 MAXIMUM STEPSIZE WHICH MEETS STABILITY CRITERION OF THE SINK & SOURCE TERM
 =  66.72    (WHEN MIN. R.F.=1)  AT K=   2, I=   1, J= 120

 MAXIMUM STEPSIZE WHICH MEETS STABILITY CRITERION OF THE DISPERSION TERM
 =  20.29    (WHEN MIN. R.F.=1)  AT K=   1, I=   1, J=  31


     1 CALLS TO GCG PACKAGE FOR TRANSPORT TIME STEP   1 IN FLOW TIME STEP 131 STRESS PERIOD   1
     6 TOTAL ITERATIONS

 NO OUTPUT CONTROL FOR STRESS PERIOD    1   TIME STEP 131
 
 SOLVING FOR HEAD 
 FLOW MODEL IS TRANSIENT
 FLOW MODEL CONTAINS CONSTANT-HEAD CELLS


 MAXIMUM STEPSIZE DURING WHICH ANY PARTICLE CANNOT MOVE MORE THAN ONE CELL
 =  5.436    (WHEN MIN. R.F.=1)  AT K=   4, I=   1, J=  59

 MAXIMUM STEPSIZE WHICH MEETS STABILITY CRITERION OF THE ADVECTION TERM
 (FOR PURE FINITE-DIFFERENCE OPTION, MIXELM=0) 
 =  3.020    (WHEN MIN. R.F.=1)  AT K=   2, I=   1, J=  81


 TOTAL NUMBER OF POINT SOURCES/SINKS PRESENT IN THE FLOW MODEL =    62

 MAXIMUM STEPSIZE WHICH MEETS STABILITY CRITERION OF THE SINK & SOURCE TERM
 =  66.55    (WHEN MIN. R.F.=1)  AT K=   2, I=   1, J= 120

 MAXIMUM STEPSIZE WHICH MEETS STABILITY CRITERION OF THE DISPERSION TERM
 =  20.29    (WHEN MIN. R.F.=1)  AT K=   1, I=   1, J=  31
     1 CALLS TO GCG PACKAGE FOR TRANSPORT TIME STEP   2 IN FLOW TIME STEP 131 STRESS PERIOD   1
     6 TOTAL ITERATIONS
 
 SOLVING FOR HEAD 
 FLOW MODEL IS TRANSIENT
 FLOW MODEL CONTAINS CONSTANT-HEAD CELLS


 MAXIMUM STEPSIZE DURING WHICH ANY PARTICLE CANNOT MOVE MORE THAN ONE CELL
 =  5.424    (WHEN MIN. R.F.=1)  AT K=   4, I=   1, J=  59

 MAXIMUM STEPSIZE WHICH MEETS STABILITY CRITERION OF THE ADVECTION TERM
 (FOR PURE FINITE-DIFFERENCE OPTION, MIXELM=0) 
 =  3.166    (WHEN MIN. R.F.=1)  AT K=   2, I=   1, J=  80


 TOTAL NUMBER OF POINT SOURCES/SINKS PRESENT IN THE FLOW MODEL =    62

 MAXIMUM STEPSIZE WHICH MEETS STABILITY CRITERION OF THE SINK & SOURCE TERM
 =  66.02    (WHEN MIN. R.F.=1)  AT K=   2, I=   1, J= 120

 MAXIMUM STEPSIZE WHICH MEETS STABILITY CRITERION OF THE DISPERSION TERM
 =  20.29    (WHEN MIN. R.F.=1)  AT K=   1, I=   1, J=  31
     1 CALLS TO GCG PACKAGE FOR TRANSPORT TIME STEP   3 IN FLOW TIME STEP 131 STRESS PERIOD   1
     6 TOTAL ITERATIONS
 
 SOLVING FOR HEAD 
 FLOW MODEL IS TRANSIENT
 FLOW MODEL CONTAINS CONSTANT-HEAD CELLS


 MAXIMUM STEPSIZE DURING WHICH ANY PARTICLE CANNOT MOVE MORE THAN ONE CELL
 =  5.412    (WHEN MIN. R.F.=1)  AT K=   4, I=   1, J=  59

 MAXIMUM STEPSIZE WHICH MEETS STABILITY CRITERION OF THE ADVECTION TERM
 (FOR PURE FINITE-DIFFERENCE OPTION, MIXELM=0) 
 =  2.904    (WHEN MIN. R.F.=1)  AT K=   2, I=   1, J=  80


 TOTAL NUMBER OF POINT SOURCES/SINKS PRESENT IN THE FLOW MODEL =    62

 MAXIMUM STEPSIZE WHICH MEETS STABILITY CRITERION OF THE SINK & SOURCE TERM
 =  65.52    (WHEN MIN. R.F.=1)  AT K=   2, I=   1, J= 120

 MAXIMUM STEPSIZE WHICH MEETS STABILITY CRITERION OF THE DISPERSION TERM
 =  20.29    (WHEN MIN. R.F.=1)  AT K=   1, I=   1, J=  31
     1 CALLS TO GCG PACKAGE FOR TRANSPORT TIME STEP   4 IN FLOW TIME STEP 131 STRESS PERIOD   1
     6 TOTAL ITERATIONS
 
 SOLVING FOR HEAD 
 FLOW MODEL IS TRANSIENT
 FLOW MODEL CONTAINS CONSTANT-HEAD CELLS


 MAXIMUM STEPSIZE DURING WHICH ANY PARTICLE CANNOT MOVE MORE THAN ONE CELL
 =  5.401    (WHEN MIN. R.F.=1)  AT K=   4, I=   1, J=  59

 MAXIMUM STEPSIZE WHICH MEETS STABILITY CRITERION OF THE ADVECTION TERM
 (FOR PURE FINITE-DIFFERENCE OPTION, MIXELM=0) 
 =  2.808    (WHEN MIN. R.F.=1)  AT K=   2, I=   1, J=  80


 TOTAL NUMBER OF POINT SOURCES/SINKS PRESENT IN THE FLOW MODEL =    62

 MAXIMUM STEPSIZE WHICH MEETS STABILITY CRITERION OF THE SINK & SOURCE TERM
 =  63.89    (WHEN MIN. R.F.=1)  AT K=   2, I=   1, J= 120

 MAXIMUM STEPSIZE WHICH MEETS STABILITY CRITERION OF THE DISPERSION TERM
 =  20.29    (WHEN MIN. R.F.=1)  AT K=   1, I=   1, J=  31
     1 CALLS TO GCG PACKAGE FOR TRANSPORT TIME STEP   5 IN FLOW TIME STEP 131 STRESS PERIOD   1
     4 TOTAL ITERATIONS
  MAXIMUM CONCENTRATION CHANGES FOR EACH ITERATION:
  MAX. CHANGE LAYER,ROW,COL MAX. CHANGE LAYER,ROW,COL MAX. CHANGE LAYER,ROW,COL MAX. CHANGE LAYER,ROW,COL MAX. CHANGE LAYER,ROW,COL
 ------------------------------------------------------------------------------------------------------------------------------------
   0.1336E-01 (  2,  1, 81)  0.1808E-03 (  2,  1, 81)  0.3537E-05 (  3,  1, 79)  0.7044E-07 (  3,  1, 82)


                                          ================================================
                                                         FROM TIME =   1310.0     TO    1320.0    

 
 SOLVING FOR HEAD 
 FLOW MODEL IS TRANSIENT
 FLOW MODEL CONTAINS CONSTANT-HEAD CELLS


 MAXIMUM STEPSIZE DURING WHICH ANY PARTICLE CANNOT MOVE MORE THAN ONE CELL
 =  5.398    (WHEN MIN. R.F.=1)  AT K=   4, I=   1, J=  59

 MAXIMUM STEPSIZE WHICH MEETS STABILITY CRITERION OF THE ADVECTION TERM
 (FOR PURE FINITE-DIFFERENCE OPTION, MIXELM=0) 
 =  2.815    (WHEN MIN. R.F.=1)  AT K=   2, I=   1, J=  80


 TOTAL NUMBER OF POINT SOURCES/SINKS PRESENT IN THE FLOW MODEL =    62

 MAXIMUM STEPSIZE WHICH MEETS STABILITY CRITERION OF THE SINK & SOURCE TERM
 =  67.43    (WHEN MIN. R.F.=1)  AT K=   2, I=   1, J= 120

 MAXIMUM STEPSIZE WHICH MEETS STABILITY CRITERION OF THE DISPERSION TERM
 =  20.29    (WHEN MIN. R.F.=1)  AT K=   1, I=   1, J=  31


     1 CALLS TO GCG PACKAGE FOR TRANSPORT TIME STEP   1 IN FLOW TIME STEP 132 STRESS PERIOD   1
     6 TOTAL ITERATIONS

 NO OUTPUT CONTROL FOR STRESS PERIOD    1   TIME STEP 132
 
 SOLVING FOR HEAD 
 FLOW MODEL IS TRANSIENT
 FLOW MODEL CONTAINS CONSTANT-HEAD CELLS


 MAXIMUM STEPSIZE DURING WHICH ANY PARTICLE CANNOT MOVE MORE THAN ONE CELL
 =  5.391    (WHEN MIN. R.F.=1)  AT K=   4, I=   1, J=  59

 MAXIMUM STEPSIZE WHICH MEETS STABILITY CRITERION OF THE ADVECTION TERM
 (FOR PURE FINITE-DIFFERENCE OPTION, MIXELM=0) 
 =  2.918    (WHEN MIN. R.F.=1)  AT K=   2, I=   1, J=  80


 TOTAL NUMBER OF POINT SOURCES/SINKS PRESENT IN THE FLOW MODEL =    62

 MAXIMUM STEPSIZE WHICH MEETS STABILITY CRITERION OF THE SINK & SOURCE TERM
 =  65.38    (WHEN MIN. R.F.=1)  AT K=   2, I=   1, J= 120

 MAXIMUM STEPSIZE WHICH MEETS STABILITY CRITERION OF THE DISPERSION TERM
 =  20.29    (WHEN MIN. R.F.=1)  AT K=   1, I=   1, J=  31
     1 CALLS TO GCG PACKAGE FOR TRANSPORT TIME STEP   2 IN FLOW TIME STEP 132 STRESS PERIOD   1
     6 TOTAL ITERATIONS
 
 SOLVING FOR HEAD 
 FLOW MODEL IS TRANSIENT
 FLOW MODEL CONTAINS CONSTANT-HEAD CELLS


 MAXIMUM STEPSIZE DURING WHICH ANY PARTICLE CANNOT MOVE MORE THAN ONE CELL
 =  5.377    (WHEN MIN. R.F.=1)  AT K=   2, I=   1, J=  81

 MAXIMUM STEPSIZE WHICH MEETS STABILITY CRITERION OF THE ADVECTION TERM
 (FOR PURE FINITE-DIFFERENCE OPTION, MIXELM=0) 
 =  3.198    (WHEN MIN. R.F.=1)  AT K=   2, I=   1, J=  80


 TOTAL NUMBER OF POINT SOURCES/SINKS PRESENT IN THE FLOW MODEL =    62

 MAXIMUM STEPSIZE WHICH MEETS STABILITY CRITERION OF THE SINK & SOURCE TERM
 =  65.39    (WHEN MIN. R.F.=1)  AT K=   2, I=   1, J= 120

 MAXIMUM STEPSIZE WHICH MEETS STABILITY CRITERION OF THE DISPERSION TERM
 =  20.29    (WHEN MIN. R.F.=1)  AT K=   1, I=   1, J=  31
     1 CALLS TO GCG PACKAGE FOR TRANSPORT TIME STEP   3 IN FLOW TIME STEP 132 STRESS PERIOD   1
     6 TOTAL ITERATIONS
 
 SOLVING FOR HEAD 
 FLOW MODEL IS TRANSIENT
 FLOW MODEL CONTAINS CONSTANT-HEAD CELLS


 MAXIMUM STEPSIZE DURING WHICH ANY PARTICLE CANNOT MOVE MORE THAN ONE CELL
 =  5.378    (WHEN MIN. R.F.=1)  AT K=   4, I=   1, J=  59

 MAXIMUM STEPSIZE WHICH MEETS STABILITY CRITERION OF THE ADVECTION TERM
 (FOR PURE FINITE-DIFFERENCE OPTION, MIXELM=0) 
 =  2.986    (WHEN MIN. R.F.=1)  AT K=   2, I=   1, J=  79


 TOTAL NUMBER OF POINT SOURCES/SINKS PRESENT IN THE FLOW MODEL =    62

 MAXIMUM STEPSIZE WHICH MEETS STABILITY CRITERION OF THE SINK & SOURCE TERM
 =  66.02    (WHEN MIN. R.F.=1)  AT K=   2, I=   1, J= 120

 MAXIMUM STEPSIZE WHICH MEETS STABILITY CRITERION OF THE DISPERSION TERM
 =  20.29    (WHEN MIN. R.F.=1)  AT K=   1, I=   1, J=  31
     1 CALLS TO GCG PACKAGE FOR TRANSPORT TIME STEP   4 IN FLOW TIME STEP 132 STRESS PERIOD   1
     6 TOTAL ITERATIONS
 
 SOLVING FOR HEAD 
 FLOW MODEL IS TRANSIENT
 FLOW MODEL CONTAINS CONSTANT-HEAD CELLS


 MAXIMUM STEPSIZE DURING WHICH ANY PARTICLE CANNOT MOVE MORE THAN ONE CELL
 =  5.334    (WHEN MIN. R.F.=1)  AT K=   3, I=   1, J=  79

 MAXIMUM STEPSIZE WHICH MEETS STABILITY CRITERION OF THE ADVECTION TERM
 (FOR PURE FINITE-DIFFERENCE OPTION, MIXELM=0) 
 =  2.864    (WHEN MIN. R.F.=1)  AT K=   2, I=   1, J=  79


 TOTAL NUMBER OF POINT SOURCES/SINKS PRESENT IN THE FLOW MODEL =    62

 MAXIMUM STEPSIZE WHICH MEETS STABILITY CRITERION OF THE SINK & SOURCE TERM
 =  64.85    (WHEN MIN. R.F.=1)  AT K=   2, I=   1, J= 120

 MAXIMUM STEPSIZE WHICH MEETS STABILITY CRITERION OF THE DISPERSION TERM
 =  20.29    (WHEN MIN. R.F.=1)  AT K=   1, I=   1, J=  31
     1 CALLS TO GCG PACKAGE FOR TRANSPORT TIME STEP   5 IN FLOW TIME STEP 132 STRESS PERIOD   1
     5 TOTAL ITERATIONS
  MAXIMUM CONCENTRATION CHANGES FOR EACH ITERATION:
  MAX. CHANGE LAYER,ROW,COL MAX. CHANGE LAYER,ROW,COL MAX. CHANGE LAYER,ROW,COL MAX. CHANGE LAYER,ROW,COL MAX. CHANGE LAYER,ROW,COL
 ------------------------------------------------------------------------------------------------------------------------------------
   0.1822E-01 (  2,  1, 39)  0.3675E-03 (  2,  1, 79)  0.8051E-05 (  3,  1, 41)  0.2387E-06 (  3,  1, 81)  0.5316E-08 (  3,  1, 44)


                                          ================================================
                                                         FROM TIME =   1320.0     TO    1330.0    

 
 SOLVING FOR HEAD 
 FLOW MODEL IS TRANSIENT
 FLOW MODEL CONTAINS CONSTANT-HEAD CELLS


 MAXIMUM STEPSIZE DURING WHICH ANY PARTICLE CANNOT MOVE MORE THAN ONE CELL
 =  5.375    (WHEN MIN. R.F.=1)  AT K=   4, I=   1, J=  59

 MAXIMUM STEPSIZE WHICH MEETS STABILITY CRITERION OF THE ADVECTION TERM
 (FOR PURE FINITE-DIFFERENCE OPTION, MIXELM=0) 
 =  2.862    (WHEN MIN. R.F.=1)  AT K=   2, I=   1, J=  79


 TOTAL NUMBER OF POINT SOURCES/SINKS PRESENT IN THE FLOW MODEL =    62

 MAXIMUM STEPSIZE WHICH MEETS STABILITY CRITERION OF THE SINK & SOURCE TERM
 =  67.89    (WHEN MIN. R.F.=1)  AT K=   2, I=   1, J= 120

 MAXIMUM STEPSIZE WHICH MEETS STABILITY CRITERION OF THE DISPERSION TERM
 =  20.29    (WHEN MIN. R.F.=1)  AT K=   1, I=   1, J=  31


     1 CALLS TO GCG PACKAGE FOR TRANSPORT TIME STEP   1 IN FLOW TIME STEP 133 STRESS PERIOD   1
     5 TOTAL ITERATIONS

 NO OUTPUT CONTROL FOR STRESS PERIOD    1   TIME STEP 133
 
 SOLVING FOR HEAD 
 FLOW MODEL IS TRANSIENT
 FLOW MODEL CONTAINS CONSTANT-HEAD CELLS


 MAXIMUM STEPSIZE DURING WHICH ANY PARTICLE CANNOT MOVE MORE THAN ONE CELL
 =  5.376    (WHEN MIN. R.F.=1)  AT K=   4, I=   1, J=  59

 MAXIMUM STEPSIZE WHICH MEETS STABILITY CRITERION OF THE ADVECTION TERM
 (FOR PURE FINITE-DIFFERENCE OPTION, MIXELM=0) 
 =  2.933    (WHEN MIN. R.F.=1)  AT K=   2, I=   1, J=  79


 TOTAL NUMBER OF POINT SOURCES/SINKS PRESENT IN THE FLOW MODEL =    62

 MAXIMUM STEPSIZE WHICH MEETS STABILITY CRITERION OF THE SINK & SOURCE TERM
 =  66.15    (WHEN MIN. R.F.=1)  AT K=   2, I=   1, J= 120

 MAXIMUM STEPSIZE WHICH MEETS STABILITY CRITERION OF THE DISPERSION TERM
 =  20.29    (WHEN MIN. R.F.=1)  AT K=   1, I=   1, J=  31
     1 CALLS TO GCG PACKAGE FOR TRANSPORT TIME STEP   2 IN FLOW TIME STEP 133 STRESS PERIOD   1
     6 TOTAL ITERATIONS
 
 SOLVING FOR HEAD 
 FLOW MODEL IS TRANSIENT
 FLOW MODEL CONTAINS CONSTANT-HEAD CELLS


 MAXIMUM STEPSIZE DURING WHICH ANY PARTICLE CANNOT MOVE MORE THAN ONE CELL
 =  5.380    (WHEN MIN. R.F.=1)  AT K=   4, I=   1, J=  59

 MAXIMUM STEPSIZE WHICH MEETS STABILITY CRITERION OF THE ADVECTION TERM
 (FOR PURE FINITE-DIFFERENCE OPTION, MIXELM=0) 
 =  3.057    (WHEN MIN. R.F.=1)  AT K=   2, I=   1, J=  41


 TOTAL NUMBER OF POINT SOURCES/SINKS PRESENT IN THE FLOW MODEL =    62

 MAXIMUM STEPSIZE WHICH MEETS STABILITY CRITERION OF THE SINK & SOURCE TERM
 =  65.82    (WHEN MIN. R.F.=1)  AT K=   2, I=   1, J= 120

 MAXIMUM STEPSIZE WHICH MEETS STABILITY CRITERION OF THE DISPERSION TERM
 =  20.29    (WHEN MIN. R.F.=1)  AT K=   1, I=   1, J=  31
     1 CALLS TO GCG PACKAGE FOR TRANSPORT TIME STEP   3 IN FLOW TIME STEP 133 STRESS PERIOD   1
     6 TOTAL ITERATIONS
 
 SOLVING FOR HEAD 
 FLOW MODEL IS TRANSIENT
 FLOW MODEL CONTAINS CONSTANT-HEAD CELLS


 MAXIMUM STEPSIZE DURING WHICH ANY PARTICLE CANNOT MOVE MORE THAN ONE CELL
 =  5.351    (WHEN MIN. R.F.=1)  AT K=   3, I=   1, J=  72

 MAXIMUM STEPSIZE WHICH MEETS STABILITY CRITERION OF THE ADVECTION TERM
 (FOR PURE FINITE-DIFFERENCE OPTION, MIXELM=0) 
 =  3.038    (WHEN MIN. R.F.=1)  AT K=   2, I=   1, J=  41


 TOTAL NUMBER OF POINT SOURCES/SINKS PRESENT IN THE FLOW MODEL =    62

 MAXIMUM STEPSIZE WHICH MEETS STABILITY CRITERION OF THE SINK & SOURCE TERM
 =  66.17    (WHEN MIN. R.F.=1)  AT K=   2, I=   1, J= 120

 MAXIMUM STEPSIZE WHICH MEETS STABILITY CRITERION OF THE DISPERSION TERM
 =  20.29    (WHEN MIN. R.F.=1)  AT K=   1, I=   1, J=  31
     1 CALLS TO GCG PACKAGE FOR TRANSPORT TIME STEP   4 IN FLOW TIME STEP 133 STRESS PERIOD   1
     6 TOTAL ITERATIONS
 
 SOLVING FOR HEAD 
 FLOW MODEL IS TRANSIENT
 FLOW MODEL CONTAINS CONSTANT-HEAD CELLS


 MAXIMUM STEPSIZE DURING WHICH ANY PARTICLE CANNOT MOVE MORE THAN ONE CELL
 =  5.219    (WHEN MIN. R.F.=1)  AT K=   4, I=   1, J=  72

 MAXIMUM STEPSIZE WHICH MEETS STABILITY CRITERION OF THE ADVECTION TERM
 (FOR PURE FINITE-DIFFERENCE OPTION, MIXELM=0) 
 =  2.999    (WHEN MIN. R.F.=1)  AT K=   2, I=   1, J=  78


 TOTAL NUMBER OF POINT SOURCES/SINKS PRESENT IN THE FLOW MODEL =    62

 MAXIMUM STEPSIZE WHICH MEETS STABILITY CRITERION OF THE SINK & SOURCE TERM
 =  65.79    (WHEN MIN. R.F.=1)  AT K=   2, I=   1, J= 120

 MAXIMUM STEPSIZE WHICH MEETS STABILITY CRITERION OF THE DISPERSION TERM
 =  20.29    (WHEN MIN. R.F.=1)  AT K=   1, I=   1, J=  31
     1 CALLS TO GCG PACKAGE FOR TRANSPORT TIME STEP   5 IN FLOW TIME STEP 133 STRESS PERIOD   1
     5 TOTAL ITERATIONS
  MAXIMUM CONCENTRATION CHANGES FOR EACH ITERATION:
  MAX. CHANGE LAYER,ROW,COL MAX. CHANGE LAYER,ROW,COL MAX. CHANGE LAYER,ROW,COL MAX. CHANGE LAYER,ROW,COL MAX. CHANGE LAYER,ROW,COL
 ------------------------------------------------------------------------------------------------------------------------------------
   0.1756E-01 (  2,  1, 40)  0.3973E-03 (  2,  1, 78)  0.1017E-04 (  3,  1, 42)  0.2118E-06 (  3,  1, 75)  0.7014E-08 (  3,  1, 45)


                                          ================================================
                                                         FROM TIME =   1330.0     TO    1340.0    

 
 SOLVING FOR HEAD 
 FLOW MODEL IS TRANSIENT
 FLOW MODEL CONTAINS CONSTANT-HEAD CELLS


 MAXIMUM STEPSIZE DURING WHICH ANY PARTICLE CANNOT MOVE MORE THAN ONE CELL
 =  5.171    (WHEN MIN. R.F.=1)  AT K=   4, I=   1, J=  72

 MAXIMUM STEPSIZE WHICH MEETS STABILITY CRITERION OF THE ADVECTION TERM
 (FOR PURE FINITE-DIFFERENCE OPTION, MIXELM=0) 
 =  2.956    (WHEN MIN. R.F.=1)  AT K=   2, I=   1, J=  78


 TOTAL NUMBER OF POINT SOURCES/SINKS PRESENT IN THE FLOW MODEL =    62

 MAXIMUM STEPSIZE WHICH MEETS STABILITY CRITERION OF THE SINK & SOURCE TERM
 =  69.41    (WHEN MIN. R.F.=1)  AT K=   2, I=   1, J= 120

 MAXIMUM STEPSIZE WHICH MEETS STABILITY CRITERION OF THE DISPERSION TERM
 =  20.29    (WHEN MIN. R.F.=1)  AT K=   1, I=   1, J=  31


     1 CALLS TO GCG PACKAGE FOR TRANSPORT TIME STEP   1 IN FLOW TIME STEP 134 STRESS PERIOD   1
     6 TOTAL ITERATIONS

 NO OUTPUT CONTROL FOR STRESS PERIOD    1   TIME STEP 134
 
 SOLVING FOR HEAD 
 FLOW MODEL IS TRANSIENT
 FLOW MODEL CONTAINS CONSTANT-HEAD CELLS


 MAXIMUM STEPSIZE DURING WHICH ANY PARTICLE CANNOT MOVE MORE THAN ONE CELL
 =  5.135    (WHEN MIN. R.F.=1)  AT K=   4, I=   1, J=  72

 MAXIMUM STEPSIZE WHICH MEETS STABILITY CRITERION OF THE ADVECTION TERM
 (FOR PURE FINITE-DIFFERENCE OPTION, MIXELM=0) 
 =  2.954    (WHEN MIN. R.F.=1)  AT K=   2, I=   1, J=  78


 TOTAL NUMBER OF POINT SOURCES/SINKS PRESENT IN THE FLOW MODEL =    62

 MAXIMUM STEPSIZE WHICH MEETS STABILITY CRITERION OF THE SINK & SOURCE TERM
 =  68.06    (WHEN MIN. R.F.=1)  AT K=   2, I=   1, J= 120

 MAXIMUM STEPSIZE WHICH MEETS STABILITY CRITERION OF THE DISPERSION TERM
 =  20.29    (WHEN MIN. R.F.=1)  AT K=   1, I=   1, J=  31
     1 CALLS TO GCG PACKAGE FOR TRANSPORT TIME STEP   2 IN FLOW TIME STEP 134 STRESS PERIOD   1
     6 TOTAL ITERATIONS
 
 SOLVING FOR HEAD 
 FLOW MODEL IS TRANSIENT
 FLOW MODEL CONTAINS CONSTANT-HEAD CELLS


 MAXIMUM STEPSIZE DURING WHICH ANY PARTICLE CANNOT MOVE MORE THAN ONE CELL
 =  5.159    (WHEN MIN. R.F.=1)  AT K=   4, I=   1, J=  72

 MAXIMUM STEPSIZE WHICH MEETS STABILITY CRITERION OF THE ADVECTION TERM
 (FOR PURE FINITE-DIFFERENCE OPTION, MIXELM=0) 
 =  3.019    (WHEN MIN. R.F.=1)  AT K=   2, I=   1, J=  42


 TOTAL NUMBER OF POINT SOURCES/SINKS PRESENT IN THE FLOW MODEL =    62

 MAXIMUM STEPSIZE WHICH MEETS STABILITY CRITERION OF THE SINK & SOURCE TERM
 =  68.56    (WHEN MIN. R.F.=1)  AT K=   2, I=   1, J= 120

 MAXIMUM STEPSIZE WHICH MEETS STABILITY CRITERION OF THE DISPERSION TERM
 =  20.29    (WHEN MIN. R.F.=1)  AT K=   1, I=   1, J=  31
     1 CALLS TO GCG PACKAGE FOR TRANSPORT TIME STEP   3 IN FLOW TIME STEP 134 STRESS PERIOD   1
     6 TOTAL ITERATIONS
 
 SOLVING FOR HEAD 
 FLOW MODEL IS TRANSIENT
 FLOW MODEL CONTAINS CONSTANT-HEAD CELLS


 MAXIMUM STEPSIZE DURING WHICH ANY PARTICLE CANNOT MOVE MORE THAN ONE CELL
 =  5.240    (WHEN MIN. R.F.=1)  AT K=   4, I=   1, J=  72

 MAXIMUM STEPSIZE WHICH MEETS STABILITY CRITERION OF THE ADVECTION TERM
 (FOR PURE FINITE-DIFFERENCE OPTION, MIXELM=0) 
 =  3.009    (WHEN MIN. R.F.=1)  AT K=   2, I=   1, J=  42


 TOTAL NUMBER OF POINT SOURCES/SINKS PRESENT IN THE FLOW MODEL =    62

 MAXIMUM STEPSIZE WHICH MEETS STABILITY CRITERION OF THE SINK & SOURCE TERM
 =  69.35    (WHEN MIN. R.F.=1)  AT K=   2, I=   1, J= 120

 MAXIMUM STEPSIZE WHICH MEETS STABILITY CRITERION OF THE DISPERSION TERM
 =  20.29    (WHEN MIN. R.F.=1)  AT K=   1, I=   1, J=  31
     1 CALLS TO GCG PACKAGE FOR TRANSPORT TIME STEP   4 IN FLOW TIME STEP 134 STRESS PERIOD   1
     6 TOTAL ITERATIONS
 
 SOLVING FOR HEAD 
 FLOW MODEL IS TRANSIENT
 FLOW MODEL CONTAINS CONSTANT-HEAD CELLS


 MAXIMUM STEPSIZE DURING WHICH ANY PARTICLE CANNOT MOVE MORE THAN ONE CELL
 =  5.323    (WHEN MIN. R.F.=1)  AT K=   5, I=   1, J=  72

 MAXIMUM STEPSIZE WHICH MEETS STABILITY CRITERION OF THE ADVECTION TERM
 (FOR PURE FINITE-DIFFERENCE OPTION, MIXELM=0) 
 =  3.097    (WHEN MIN. R.F.=1)  AT K=   2, I=   1, J=  42


 TOTAL NUMBER OF POINT SOURCES/SINKS PRESENT IN THE FLOW MODEL =    62

 MAXIMUM STEPSIZE WHICH MEETS STABILITY CRITERION OF THE SINK & SOURCE TERM
 =  68.45    (WHEN MIN. R.F.=1)  AT K=   2, I=   1, J= 120

 MAXIMUM STEPSIZE WHICH MEETS STABILITY CRITERION OF THE DISPERSION TERM
 =  20.29    (WHEN MIN. R.F.=1)  AT K=   1, I=   1, J=  31
     1 CALLS TO GCG PACKAGE FOR TRANSPORT TIME STEP   5 IN FLOW TIME STEP 134 STRESS PERIOD   1
     5 TOTAL ITERATIONS
  MAXIMUM CONCENTRATION CHANGES FOR EACH ITERATION:
  MAX. CHANGE LAYER,ROW,COL MAX. CHANGE LAYER,ROW,COL MAX. CHANGE LAYER,ROW,COL MAX. CHANGE LAYER,ROW,COL MAX. CHANGE LAYER,ROW,COL
 ------------------------------------------------------------------------------------------------------------------------------------
   0.1498E-01 (  2,  1, 79)  0.2970E-03 (  2,  1, 77)  0.6138E-05 (  3,  1, 43)  0.1634E-06 (  3,  1, 74)  0.3580E-08 (  4,  1, 74)


                                          ================================================
                                                         FROM TIME =   1340.0     TO    1350.0    

 
 SOLVING FOR HEAD 
 FLOW MODEL IS TRANSIENT
 FLOW MODEL CONTAINS CONSTANT-HEAD CELLS


 MAXIMUM STEPSIZE DURING WHICH ANY PARTICLE CANNOT MOVE MORE THAN ONE CELL
 =  5.350    (WHEN MIN. R.F.=1)  AT K=   5, I=   1, J=  72

 MAXIMUM STEPSIZE WHICH MEETS STABILITY CRITERION OF THE ADVECTION TERM
 (FOR PURE FINITE-DIFFERENCE OPTION, MIXELM=0) 
 =  3.098    (WHEN MIN. R.F.=1)  AT K=   2, I=   1, J=  77


 TOTAL NUMBER OF POINT SOURCES/SINKS PRESENT IN THE FLOW MODEL =    62

 MAXIMUM STEPSIZE WHICH MEETS STABILITY CRITERION OF THE SINK & SOURCE TERM
 =  72.58    (WHEN MIN. R.F.=1)  AT K=   2, I=   1, J= 120

 MAXIMUM STEPSIZE WHICH MEETS STABILITY CRITERION OF THE DISPERSION TERM
 =  20.29    (WHEN MIN. R.F.=1)  AT K=   1, I=   1, J=  31


     1 CALLS TO GCG PACKAGE FOR TRANSPORT TIME STEP   1 IN FLOW TIME STEP 135 STRESS PERIOD   1
     6 TOTAL ITERATIONS

 NO OUTPUT CONTROL FOR STRESS PERIOD    1   TIME STEP 135
 
 SOLVING FOR HEAD 
 FLOW MODEL IS TRANSIENT
 FLOW MODEL CONTAINS CONSTANT-HEAD CELLS


 MAXIMUM STEPSIZE DURING WHICH ANY PARTICLE CANNOT MOVE MORE THAN ONE CELL
 =  5.433    (WHEN MIN. R.F.=1)  AT K=   5, I=   1, J=  72

 MAXIMUM STEPSIZE WHICH MEETS STABILITY CRITERION OF THE ADVECTION TERM
 (FOR PURE FINITE-DIFFERENCE OPTION, MIXELM=0) 
 =  3.013    (WHEN MIN. R.F.=1)  AT K=   2, I=   1, J=  77


 TOTAL NUMBER OF POINT SOURCES/SINKS PRESENT IN THE FLOW MODEL =    62

 MAXIMUM STEPSIZE WHICH MEETS STABILITY CRITERION OF THE SINK & SOURCE TERM
 =  70.59    (WHEN MIN. R.F.=1)  AT K=   2, I=   1, J= 120

 MAXIMUM STEPSIZE WHICH MEETS STABILITY CRITERION OF THE DISPERSION TERM
 =  20.29    (WHEN MIN. R.F.=1)  AT K=   1, I=   1, J=  31
     1 CALLS TO GCG PACKAGE FOR TRANSPORT TIME STEP   2 IN FLOW TIME STEP 135 STRESS PERIOD   1
     6 TOTAL ITERATIONS
 
 SOLVING FOR HEAD 
 FLOW MODEL IS TRANSIENT
 FLOW MODEL CONTAINS CONSTANT-HEAD CELLS


 MAXIMUM STEPSIZE DURING WHICH ANY PARTICLE CANNOT MOVE MORE THAN ONE CELL
 =  5.483    (WHEN MIN. R.F.=1)  AT K=   4, I=   1, J=  50

 MAXIMUM STEPSIZE WHICH MEETS STABILITY CRITERION OF THE ADVECTION TERM
 (FOR PURE FINITE-DIFFERENCE OPTION, MIXELM=0) 
 =  3.035    (WHEN MIN. R.F.=1)  AT K=   2, I=   1, J=  77


 TOTAL NUMBER OF POINT SOURCES/SINKS PRESENT IN THE FLOW MODEL =    62

 MAXIMUM STEPSIZE WHICH MEETS STABILITY CRITERION OF THE SINK & SOURCE TERM
 =  71.41    (WHEN MIN. R.F.=1)  AT K=   2, I=   1, J= 120

 MAXIMUM STEPSIZE WHICH MEETS STABILITY CRITERION OF THE DISPERSION TERM
 =  20.29    (WHEN MIN. R.F.=1)  AT K=   1, I=   1, J=  31
     1 CALLS TO GCG PACKAGE FOR TRANSPORT TIME STEP   3 IN FLOW TIME STEP 135 STRESS PERIOD   1
     6 TOTAL ITERATIONS
 
 SOLVING FOR HEAD 
 FLOW MODEL IS TRANSIENT
 FLOW MODEL CONTAINS CONSTANT-HEAD CELLS


 MAXIMUM STEPSIZE DURING WHICH ANY PARTICLE CANNOT MOVE MORE THAN ONE CELL
 =  5.287    (WHEN MIN. R.F.=1)  AT K=   4, I=   1, J=  50

 MAXIMUM STEPSIZE WHICH MEETS STABILITY CRITERION OF THE ADVECTION TERM
 (FOR PURE FINITE-DIFFERENCE OPTION, MIXELM=0) 
 =  3.043    (WHEN MIN. R.F.=1)  AT K=   2, I=   1, J=  43


 TOTAL NUMBER OF POINT SOURCES/SINKS PRESENT IN THE FLOW MODEL =    62

 MAXIMUM STEPSIZE WHICH MEETS STABILITY CRITERION OF THE SINK & SOURCE TERM
 =  72.10    (WHEN MIN. R.F.=1)  AT K=   2, I=   1, J= 120

 MAXIMUM STEPSIZE WHICH MEETS STABILITY CRITERION OF THE DISPERSION TERM
 =  20.29    (WHEN MIN. R.F.=1)  AT K=   1, I=   1, J=  31
     1 CALLS TO GCG PACKAGE FOR TRANSPORT TIME STEP   4 IN FLOW TIME STEP 135 STRESS PERIOD   1
     6 TOTAL ITERATIONS
 
 SOLVING FOR HEAD 
 FLOW MODEL IS TRANSIENT
 FLOW MODEL CONTAINS CONSTANT-HEAD CELLS


 MAXIMUM STEPSIZE DURING WHICH ANY PARTICLE CANNOT MOVE MORE THAN ONE CELL
 =  5.134    (WHEN MIN. R.F.=1)  AT K=   4, I=   1, J=  50

 MAXIMUM STEPSIZE WHICH MEETS STABILITY CRITERION OF THE ADVECTION TERM
 (FOR PURE FINITE-DIFFERENCE OPTION, MIXELM=0) 
 =  3.097    (WHEN MIN. R.F.=1)  AT K=   2, I=   1, J=  43


 TOTAL NUMBER OF POINT SOURCES/SINKS PRESENT IN THE FLOW MODEL =    62

 MAXIMUM STEPSIZE WHICH MEETS STABILITY CRITERION OF THE SINK & SOURCE TERM
 =  70.56    (WHEN MIN. R.F.=1)  AT K=   2, I=   1, J= 120

 MAXIMUM STEPSIZE WHICH MEETS STABILITY CRITERION OF THE DISPERSION TERM
 =  20.29    (WHEN MIN. R.F.=1)  AT K=   1, I=   1, J=  31
     1 CALLS TO GCG PACKAGE FOR TRANSPORT TIME STEP   5 IN FLOW TIME STEP 135 STRESS PERIOD   1
     4 TOTAL ITERATIONS
  MAXIMUM CONCENTRATION CHANGES FOR EACH ITERATION:
  MAX. CHANGE LAYER,ROW,COL MAX. CHANGE LAYER,ROW,COL MAX. CHANGE LAYER,ROW,COL MAX. CHANGE LAYER,ROW,COL MAX. CHANGE LAYER,ROW,COL
 ------------------------------------------------------------------------------------------------------------------------------------
   0.1231E-01 (  2,  1, 78)  0.1835E-03 (  2,  1, 76)  0.3282E-05 (  3,  1, 76)  0.5967E-07 (  3,  1, 74)


                                          ================================================
                                                         FROM TIME =   1350.0     TO    1360.0    

 
 SOLVING FOR HEAD 
 FLOW MODEL IS TRANSIENT
 FLOW MODEL CONTAINS CONSTANT-HEAD CELLS


 MAXIMUM STEPSIZE DURING WHICH ANY PARTICLE CANNOT MOVE MORE THAN ONE CELL
 =  5.089    (WHEN MIN. R.F.=1)  AT K=   4, I=   1, J=  50

 MAXIMUM STEPSIZE WHICH MEETS STABILITY CRITERION OF THE ADVECTION TERM
 (FOR PURE FINITE-DIFFERENCE OPTION, MIXELM=0) 
 =  3.146    (WHEN MIN. R.F.=1)  AT K=   2, I=   1, J=  43


 TOTAL NUMBER OF POINT SOURCES/SINKS PRESENT IN THE FLOW MODEL =    62

 MAXIMUM STEPSIZE WHICH MEETS STABILITY CRITERION OF THE SINK & SOURCE TERM
 =  75.46    (WHEN MIN. R.F.=1)  AT K=   2, I=   1, J= 120

 MAXIMUM STEPSIZE WHICH MEETS STABILITY CRITERION OF THE DISPERSION TERM
 =  20.29    (WHEN MIN. R.F.=1)  AT K=   1, I=   1, J=  31


     1 CALLS TO GCG PACKAGE FOR TRANSPORT TIME STEP   1 IN FLOW TIME STEP 136 STRESS PERIOD   1
     6 TOTAL ITERATIONS

 NO OUTPUT CONTROL FOR STRESS PERIOD    1   TIME STEP 136
 
 SOLVING FOR HEAD 
 FLOW MODEL IS TRANSIENT
 FLOW MODEL CONTAINS CONSTANT-HEAD CELLS


 MAXIMUM STEPSIZE DURING WHICH ANY PARTICLE CANNOT MOVE MORE THAN ONE CELL
 =  4.997    (WHEN MIN. R.F.=1)  AT K=   4, I=   1, J=  50

 MAXIMUM STEPSIZE WHICH MEETS STABILITY CRITERION OF THE ADVECTION TERM
 (FOR PURE FINITE-DIFFERENCE OPTION, MIXELM=0) 
 =  3.221    (WHEN MIN. R.F.=1)  AT K=   2, I=   1, J=  76


 TOTAL NUMBER OF POINT SOURCES/SINKS PRESENT IN THE FLOW MODEL =    62

 MAXIMUM STEPSIZE WHICH MEETS STABILITY CRITERION OF THE SINK & SOURCE TERM
 =  73.46    (WHEN MIN. R.F.=1)  AT K=   2, I=   1, J= 120

 MAXIMUM STEPSIZE WHICH MEETS STABILITY CRITERION OF THE DISPERSION TERM
 =  20.29    (WHEN MIN. R.F.=1)  AT K=   1, I=   1, J=  31
     1 CALLS TO GCG PACKAGE FOR TRANSPORT TIME STEP   2 IN FLOW TIME STEP 136 STRESS PERIOD   1
     6 TOTAL ITERATIONS
 
 SOLVING FOR HEAD 
 FLOW MODEL IS TRANSIENT
 FLOW MODEL CONTAINS CONSTANT-HEAD CELLS


 MAXIMUM STEPSIZE DURING WHICH ANY PARTICLE CANNOT MOVE MORE THAN ONE CELL
 =  4.942    (WHEN MIN. R.F.=1)  AT K=   4, I=   1, J=  50

 MAXIMUM STEPSIZE WHICH MEETS STABILITY CRITERION OF THE ADVECTION TERM
 (FOR PURE FINITE-DIFFERENCE OPTION, MIXELM=0) 
 =  3.142    (WHEN MIN. R.F.=1)  AT K=   2, I=   1, J=  76


 TOTAL NUMBER OF POINT SOURCES/SINKS PRESENT IN THE FLOW MODEL =    62

 MAXIMUM STEPSIZE WHICH MEETS STABILITY CRITERION OF THE SINK & SOURCE TERM
 =  73.80    (WHEN MIN. R.F.=1)  AT K=   2, I=   1, J= 120

 MAXIMUM STEPSIZE WHICH MEETS STABILITY CRITERION OF THE DISPERSION TERM
 =  20.29    (WHEN MIN. R.F.=1)  AT K=   1, I=   1, J=  31
     1 CALLS TO GCG PACKAGE FOR TRANSPORT TIME STEP   3 IN FLOW TIME STEP 136 STRESS PERIOD   1
     6 TOTAL ITERATIONS
 
 SOLVING FOR HEAD 
 FLOW MODEL IS TRANSIENT
 FLOW MODEL CONTAINS CONSTANT-HEAD CELLS


 MAXIMUM STEPSIZE DURING WHICH ANY PARTICLE CANNOT MOVE MORE THAN ONE CELL
 =  4.924    (WHEN MIN. R.F.=1)  AT K=   4, I=   1, J=  50

 MAXIMUM STEPSIZE WHICH MEETS STABILITY CRITERION OF THE ADVECTION TERM
 (FOR PURE FINITE-DIFFERENCE OPTION, MIXELM=0) 
 =  3.117    (WHEN MIN. R.F.=1)  AT K=   2, I=   1, J=  44


 TOTAL NUMBER OF POINT SOURCES/SINKS PRESENT IN THE FLOW MODEL =    62

 MAXIMUM STEPSIZE WHICH MEETS STABILITY CRITERION OF THE SINK & SOURCE TERM
 =  74.37    (WHEN MIN. R.F.=1)  AT K=   2, I=   1, J= 120

 MAXIMUM STEPSIZE WHICH MEETS STABILITY CRITERION OF THE DISPERSION TERM
 =  20.29    (WHEN MIN. R.F.=1)  AT K=   1, I=   1, J=  31
     1 CALLS TO GCG PACKAGE FOR TRANSPORT TIME STEP   4 IN FLOW TIME STEP 136 STRESS PERIOD   1
     6 TOTAL ITERATIONS
 
 SOLVING FOR HEAD 
 FLOW MODEL IS TRANSIENT
 FLOW MODEL CONTAINS CONSTANT-HEAD CELLS


 MAXIMUM STEPSIZE DURING WHICH ANY PARTICLE CANNOT MOVE MORE THAN ONE CELL
 =  4.936    (WHEN MIN. R.F.=1)  AT K=   4, I=   1, J=  50

 MAXIMUM STEPSIZE WHICH MEETS STABILITY CRITERION OF THE ADVECTION TERM
 (FOR PURE FINITE-DIFFERENCE OPTION, MIXELM=0) 
 =  3.130    (WHEN MIN. R.F.=1)  AT K=   2, I=   1, J=  44


 TOTAL NUMBER OF POINT SOURCES/SINKS PRESENT IN THE FLOW MODEL =    62

 MAXIMUM STEPSIZE WHICH MEETS STABILITY CRITERION OF THE SINK & SOURCE TERM
 =  72.03    (WHEN MIN. R.F.=1)  AT K=   2, I=   1, J= 120

 MAXIMUM STEPSIZE WHICH MEETS STABILITY CRITERION OF THE DISPERSION TERM
 =  20.29    (WHEN MIN. R.F.=1)  AT K=   1, I=   1, J=  31
     1 CALLS TO GCG PACKAGE FOR TRANSPORT TIME STEP   5 IN FLOW TIME STEP 136 STRESS PERIOD   1
     4 TOTAL ITERATIONS
  MAXIMUM CONCENTRATION CHANGES FOR EACH ITERATION:
  MAX. CHANGE LAYER,ROW,COL MAX. CHANGE LAYER,ROW,COL MAX. CHANGE LAYER,ROW,COL MAX. CHANGE LAYER,ROW,COL MAX. CHANGE LAYER,ROW,COL
 ------------------------------------------------------------------------------------------------------------------------------------
   0.8824E-02 (  2,  1, 77)  0.6590E-04 (  2,  1, 75)  0.9269E-06 (  3,  1, 75)  0.1015E-07 (  3,  1, 47)


                                          ================================================
                                                         FROM TIME =   1360.0     TO    1370.0    

 
 SOLVING FOR HEAD 
 FLOW MODEL IS TRANSIENT
 FLOW MODEL CONTAINS CONSTANT-HEAD CELLS


 MAXIMUM STEPSIZE DURING WHICH ANY PARTICLE CANNOT MOVE MORE THAN ONE CELL
 =  4.944    (WHEN MIN. R.F.=1)  AT K=   4, I=   1, J=  50

 MAXIMUM STEPSIZE WHICH MEETS STABILITY CRITERION OF THE ADVECTION TERM
 (FOR PURE FINITE-DIFFERENCE OPTION, MIXELM=0) 
 =  3.146    (WHEN MIN. R.F.=1)  AT K=   2, I=   1, J=  44


 TOTAL NUMBER OF POINT SOURCES/SINKS PRESENT IN THE FLOW MODEL =    62

 MAXIMUM STEPSIZE WHICH MEETS STABILITY CRITERION OF THE SINK & SOURCE TERM
 =  77.97    (WHEN MIN. R.F.=1)  AT K=   2, I=   1, J= 120

 MAXIMUM STEPSIZE WHICH MEETS STABILITY CRITERION OF THE DISPERSION TERM
 =  20.29    (WHEN MIN. R.F.=1)  AT K=   1, I=   1, J=  31


     1 CALLS TO GCG PACKAGE FOR TRANSPORT TIME STEP   1 IN FLOW TIME STEP 137 STRESS PERIOD   1
     6 TOTAL ITERATIONS

 NO OUTPUT CONTROL FOR STRESS PERIOD    1   TIME STEP 137
 
 SOLVING FOR HEAD 
 FLOW MODEL IS TRANSIENT
 FLOW MODEL CONTAINS CONSTANT-HEAD CELLS


 MAXIMUM STEPSIZE DURING WHICH ANY PARTICLE CANNOT MOVE MORE THAN ONE CELL
 =  4.983    (WHEN MIN. R.F.=1)  AT K=   4, I=   1, J=  50

 MAXIMUM STEPSIZE WHICH MEETS STABILITY CRITERION OF THE ADVECTION TERM
 (FOR PURE FINITE-DIFFERENCE OPTION, MIXELM=0) 
 =  3.298    (WHEN MIN. R.F.=1)  AT K=   2, I=   1, J=  44


 TOTAL NUMBER OF POINT SOURCES/SINKS PRESENT IN THE FLOW MODEL =    62

 MAXIMUM STEPSIZE WHICH MEETS STABILITY CRITERION OF THE SINK & SOURCE TERM
 =  76.56    (WHEN MIN. R.F.=1)  AT K=   2, I=   1, J= 120

 MAXIMUM STEPSIZE WHICH MEETS STABILITY CRITERION OF THE DISPERSION TERM
 =  20.29    (WHEN MIN. R.F.=1)  AT K=   1, I=   1, J=  31
     1 CALLS TO GCG PACKAGE FOR TRANSPORT TIME STEP   2 IN FLOW TIME STEP 137 STRESS PERIOD   1
     6 TOTAL ITERATIONS
 
 SOLVING FOR HEAD 
 FLOW MODEL IS TRANSIENT
 FLOW MODEL CONTAINS CONSTANT-HEAD CELLS


 MAXIMUM STEPSIZE DURING WHICH ANY PARTICLE CANNOT MOVE MORE THAN ONE CELL
 =  5.044    (WHEN MIN. R.F.=1)  AT K=   4, I=   1, J=  50

 MAXIMUM STEPSIZE WHICH MEETS STABILITY CRITERION OF THE ADVECTION TERM
 (FOR PURE FINITE-DIFFERENCE OPTION, MIXELM=0) 
 =  3.476    (WHEN MIN. R.F.=1)  AT K=   2, I=   1, J=  75


 TOTAL NUMBER OF POINT SOURCES/SINKS PRESENT IN THE FLOW MODEL =    62

 MAXIMUM STEPSIZE WHICH MEETS STABILITY CRITERION OF THE SINK & SOURCE TERM
 =  76.53    (WHEN MIN. R.F.=1)  AT K=   2, I=   1, J= 120

 MAXIMUM STEPSIZE WHICH MEETS STABILITY CRITERION OF THE DISPERSION TERM
 =  20.29    (WHEN MIN. R.F.=1)  AT K=   1, I=   1, J=  31
     1 CALLS TO GCG PACKAGE FOR TRANSPORT TIME STEP   3 IN FLOW TIME STEP 137 STRESS PERIOD   1
     6 TOTAL ITERATIONS
 
 SOLVING FOR HEAD 
 FLOW MODEL IS TRANSIENT
 FLOW MODEL CONTAINS CONSTANT-HEAD CELLS


 MAXIMUM STEPSIZE DURING WHICH ANY PARTICLE CANNOT MOVE MORE THAN ONE CELL
 =  5.110    (WHEN MIN. R.F.=1)  AT K=   5, I=   1, J=  50

 MAXIMUM STEPSIZE WHICH MEETS STABILITY CRITERION OF THE ADVECTION TERM
 (FOR PURE FINITE-DIFFERENCE OPTION, MIXELM=0) 
 =  3.300    (WHEN MIN. R.F.=1)  AT K=   2, I=   1, J=  45


 TOTAL NUMBER OF POINT SOURCES/SINKS PRESENT IN THE FLOW MODEL =    62

 MAXIMUM STEPSIZE WHICH MEETS STABILITY CRITERION OF THE SINK & SOURCE TERM
 =  76.38    (WHEN MIN. R.F.=1)  AT K=   2, I=   1, J= 120

 MAXIMUM STEPSIZE WHICH MEETS STABILITY CRITERION OF THE DISPERSION TERM
 =  20.29    (WHEN MIN. R.F.=1)  AT K=   1, I=   1, J=  31
     1 CALLS TO GCG PACKAGE FOR TRANSPORT TIME STEP   4 IN FLOW TIME STEP 137 STRESS PERIOD   1
     6 TOTAL ITERATIONS
 
 SOLVING FOR HEAD 
 FLOW MODEL IS TRANSIENT
 FLOW MODEL CONTAINS CONSTANT-HEAD CELLS


 MAXIMUM STEPSIZE DURING WHICH ANY PARTICLE CANNOT MOVE MORE THAN ONE CELL
 =  5.180    (WHEN MIN. R.F.=1)  AT K=   5, I=   1, J=  50

 MAXIMUM STEPSIZE WHICH MEETS STABILITY CRITERION OF THE ADVECTION TERM
 (FOR PURE FINITE-DIFFERENCE OPTION, MIXELM=0) 
 =  3.221    (WHEN MIN. R.F.=1)  AT K=   2, I=   1, J=  45


 TOTAL NUMBER OF POINT SOURCES/SINKS PRESENT IN THE FLOW MODEL =    62

 MAXIMUM STEPSIZE WHICH MEETS STABILITY CRITERION OF THE SINK & SOURCE TERM
 =  71.87    (WHEN MIN. R.F.=1)  AT K=   2, I=   1, J= 120

 MAXIMUM STEPSIZE WHICH MEETS STABILITY CRITERION OF THE DISPERSION TERM
 =  20.29    (WHEN MIN. R.F.=1)  AT K=   1, I=   1, J=  31
     1 CALLS TO GCG PACKAGE FOR TRANSPORT TIME STEP   5 IN FLOW TIME STEP 137 STRESS PERIOD   1
     3 TOTAL ITERATIONS
  MAXIMUM CONCENTRATION CHANGES FOR EACH ITERATION:
  MAX. CHANGE LAYER,ROW,COL MAX. CHANGE LAYER,ROW,COL MAX. CHANGE LAYER,ROW,COL MAX. CHANGE LAYER,ROW,COL MAX. CHANGE LAYER,ROW,COL
 ------------------------------------------------------------------------------------------------------------------------------------
   0.3197E-02 (  2,  1, 76)  0.1162E-04 (  2,  1, 76)  0.5322E-07 (  2,  1, 77)


                                          ================================================
                                                         FROM TIME =   1370.0     TO    1380.0    

 
 SOLVING FOR HEAD 
 FLOW MODEL IS TRANSIENT
 FLOW MODEL CONTAINS CONSTANT-HEAD CELLS


 MAXIMUM STEPSIZE DURING WHICH ANY PARTICLE CANNOT MOVE MORE THAN ONE CELL
 =  5.187    (WHEN MIN. R.F.=1)  AT K=   5, I=   1, J=  50

 MAXIMUM STEPSIZE WHICH MEETS STABILITY CRITERION OF THE ADVECTION TERM
 (FOR PURE FINITE-DIFFERENCE OPTION, MIXELM=0) 
 =  3.222    (WHEN MIN. R.F.=1)  AT K=   2, I=   1, J=  45


 TOTAL NUMBER OF POINT SOURCES/SINKS PRESENT IN THE FLOW MODEL =    62

 MAXIMUM STEPSIZE WHICH MEETS STABILITY CRITERION OF THE SINK & SOURCE TERM
 =  79.24    (WHEN MIN. R.F.=1)  AT K=   2, I=   1, J= 120

 MAXIMUM STEPSIZE WHICH MEETS STABILITY CRITERION OF THE DISPERSION TERM
 =  20.29    (WHEN MIN. R.F.=1)  AT K=   1, I=   1, J=  31


     1 CALLS TO GCG PACKAGE FOR TRANSPORT TIME STEP   1 IN FLOW TIME STEP 138 STRESS PERIOD   1
     6 TOTAL ITERATIONS

 NO OUTPUT CONTROL FOR STRESS PERIOD    1   TIME STEP 138
 
 SOLVING FOR HEAD 
 FLOW MODEL IS TRANSIENT
 FLOW MODEL CONTAINS CONSTANT-HEAD CELLS


 MAXIMUM STEPSIZE DURING WHICH ANY PARTICLE CANNOT MOVE MORE THAN ONE CELL
 =  5.270    (WHEN MIN. R.F.=1)  AT K=   5, I=   1, J=  50

 MAXIMUM STEPSIZE WHICH MEETS STABILITY CRITERION OF THE ADVECTION TERM
 (FOR PURE FINITE-DIFFERENCE OPTION, MIXELM=0) 
 =  3.284    (WHEN MIN. R.F.=1)  AT K=   2, I=   1, J=  45


 TOTAL NUMBER OF POINT SOURCES/SINKS PRESENT IN THE FLOW MODEL =    62

 MAXIMUM STEPSIZE WHICH MEETS STABILITY CRITERION OF THE SINK & SOURCE TERM
 =  77.92    (WHEN MIN. R.F.=1)  AT K=   2, I=   1, J= 120

 MAXIMUM STEPSIZE WHICH MEETS STABILITY CRITERION OF THE DISPERSION TERM
 =  20.29    (WHEN MIN. R.F.=1)  AT K=   1, I=   1, J=  31
     1 CALLS TO GCG PACKAGE FOR TRANSPORT TIME STEP   2 IN FLOW TIME STEP 138 STRESS PERIOD   1
     6 TOTAL ITERATIONS
 
 SOLVING FOR HEAD 
 FLOW MODEL IS TRANSIENT
 FLOW MODEL CONTAINS CONSTANT-HEAD CELLS


 MAXIMUM STEPSIZE DURING WHICH ANY PARTICLE CANNOT MOVE MORE THAN ONE CELL
 =  5.366    (WHEN MIN. R.F.=1)  AT K=   5, I=   1, J=  50

 MAXIMUM STEPSIZE WHICH MEETS STABILITY CRITERION OF THE ADVECTION TERM
 (FOR PURE FINITE-DIFFERENCE OPTION, MIXELM=0) 
 =  3.478    (WHEN MIN. R.F.=1)  AT K=   2, I=   1, J=  45


 TOTAL NUMBER OF POINT SOURCES/SINKS PRESENT IN THE FLOW MODEL =    62

 MAXIMUM STEPSIZE WHICH MEETS STABILITY CRITERION OF THE SINK & SOURCE TERM
 =  77.30    (WHEN MIN. R.F.=1)  AT K=   2, I=   1, J= 120

 MAXIMUM STEPSIZE WHICH MEETS STABILITY CRITERION OF THE DISPERSION TERM
 =  20.29    (WHEN MIN. R.F.=1)  AT K=   1, I=   1, J=  31
     1 CALLS TO GCG PACKAGE FOR TRANSPORT TIME STEP   3 IN FLOW TIME STEP 138 STRESS PERIOD   1
     6 TOTAL ITERATIONS
 
 SOLVING FOR HEAD 
 FLOW MODEL IS TRANSIENT
 FLOW MODEL CONTAINS CONSTANT-HEAD CELLS


 MAXIMUM STEPSIZE DURING WHICH ANY PARTICLE CANNOT MOVE MORE THAN ONE CELL
 =  5.457    (WHEN MIN. R.F.=1)  AT K=   6, I=   1, J=  50

 MAXIMUM STEPSIZE WHICH MEETS STABILITY CRITERION OF THE ADVECTION TERM
 (FOR PURE FINITE-DIFFERENCE OPTION, MIXELM=0) 
 =  3.662    (WHEN MIN. R.F.=1)  AT K=   2, I=   1, J=  46


 TOTAL NUMBER OF POINT SOURCES/SINKS PRESENT IN THE FLOW MODEL =    62

 MAXIMUM STEPSIZE WHICH MEETS STABILITY CRITERION OF THE SINK & SOURCE TERM
 =  75.67    (WHEN MIN. R.F.=1)  AT K=   2, I=   1, J= 120

 MAXIMUM STEPSIZE WHICH MEETS STABILITY CRITERION OF THE DISPERSION TERM
 =  20.29    (WHEN MIN. R.F.=1)  AT K=   1, I=   1, J=  31
     1 CALLS TO GCG PACKAGE FOR TRANSPORT TIME STEP   4 IN FLOW TIME STEP 138 STRESS PERIOD   1
     6 TOTAL ITERATIONS
 
 SOLVING FOR HEAD 
 FLOW MODEL IS TRANSIENT
 FLOW MODEL CONTAINS CONSTANT-HEAD CELLS


 MAXIMUM STEPSIZE DURING WHICH ANY PARTICLE CANNOT MOVE MORE THAN ONE CELL
 =  5.548    (WHEN MIN. R.F.=1)  AT K=   6, I=   1, J=  50

 MAXIMUM STEPSIZE WHICH MEETS STABILITY CRITERION OF THE ADVECTION TERM
 (FOR PURE FINITE-DIFFERENCE OPTION, MIXELM=0) 
 =  3.438    (WHEN MIN. R.F.=1)  AT K=   2, I=   1, J=  46


 TOTAL NUMBER OF POINT SOURCES/SINKS PRESENT IN THE FLOW MODEL =    62

 MAXIMUM STEPSIZE WHICH MEETS STABILITY CRITERION OF THE SINK & SOURCE TERM
 =  70.68    (WHEN MIN. R.F.=1)  AT K=   2, I=   1, J= 120

 MAXIMUM STEPSIZE WHICH MEETS STABILITY CRITERION OF THE DISPERSION TERM
 =  20.29    (WHEN MIN. R.F.=1)  AT K=   1, I=   1, J=  31
     1 CALLS TO GCG PACKAGE FOR TRANSPORT TIME STEP   5 IN FLOW TIME STEP 138 STRESS PERIOD   1
     3 TOTAL ITERATIONS
  MAXIMUM CONCENTRATION CHANGES FOR EACH ITERATION:
  MAX. CHANGE LAYER,ROW,COL MAX. CHANGE LAYER,ROW,COL MAX. CHANGE LAYER,ROW,COL MAX. CHANGE LAYER,ROW,COL MAX. CHANGE LAYER,ROW,COL
 ------------------------------------------------------------------------------------------------------------------------------------
   0.1457E-02 (  2,  1, 83)  0.2543E-05 (  2,  1, 74)  0.4673E-08 (  2,  1, 74)


                                          ================================================
                                                         FROM TIME =   1380.0     TO    1390.0    

 
 SOLVING FOR HEAD 
 FLOW MODEL IS TRANSIENT
 FLOW MODEL CONTAINS CONSTANT-HEAD CELLS


 MAXIMUM STEPSIZE DURING WHICH ANY PARTICLE CANNOT MOVE MORE THAN ONE CELL
 =  5.552    (WHEN MIN. R.F.=1)  AT K=   6, I=   1, J=  50

 MAXIMUM STEPSIZE WHICH MEETS STABILITY CRITERION OF THE ADVECTION TERM
 (FOR PURE FINITE-DIFFERENCE OPTION, MIXELM=0) 
 =  3.429    (WHEN MIN. R.F.=1)  AT K=   2, I=   1, J=  81


 TOTAL NUMBER OF POINT SOURCES/SINKS PRESENT IN THE FLOW MODEL =    62

 MAXIMUM STEPSIZE WHICH MEETS STABILITY CRITERION OF THE SINK & SOURCE TERM
 =  77.36    (WHEN MIN. R.F.=1)  AT K=   2, I=   1, J= 120

 MAXIMUM STEPSIZE WHICH MEETS STABILITY CRITERION OF THE DISPERSION TERM
 =  20.29    (WHEN MIN. R.F.=1)  AT K=   1, I=   1, J=  31


     1 CALLS TO GCG PACKAGE FOR TRANSPORT TIME STEP   1 IN FLOW TIME STEP 139 STRESS PERIOD   1
     6 TOTAL ITERATIONS

 NO OUTPUT CONTROL FOR STRESS PERIOD    1   TIME STEP 139
 
 SOLVING FOR HEAD 
 FLOW MODEL IS TRANSIENT
 FLOW MODEL CONTAINS CONSTANT-HEAD CELLS


 MAXIMUM STEPSIZE DURING WHICH ANY PARTICLE CANNOT MOVE MORE THAN ONE CELL
 =  5.650    (WHEN MIN. R.F.=1)  AT K=   6, I=   1, J=  50

 MAXIMUM STEPSIZE WHICH MEETS STABILITY CRITERION OF THE ADVECTION TERM
 (FOR PURE FINITE-DIFFERENCE OPTION, MIXELM=0) 
 =  3.187    (WHEN MIN. R.F.=1)  AT K=   2, I=   1, J=  81


 TOTAL NUMBER OF POINT SOURCES/SINKS PRESENT IN THE FLOW MODEL =    62

 MAXIMUM STEPSIZE WHICH MEETS STABILITY CRITERION OF THE SINK & SOURCE TERM
 =  74.68    (WHEN MIN. R.F.=1)  AT K=   2, I=   1, J= 120

 MAXIMUM STEPSIZE WHICH MEETS STABILITY CRITERION OF THE DISPERSION TERM
 =  20.29    (WHEN MIN. R.F.=1)  AT K=   1, I=   1, J=  31
     1 CALLS TO GCG PACKAGE FOR TRANSPORT TIME STEP   2 IN FLOW TIME STEP 139 STRESS PERIOD   1
     6 TOTAL ITERATIONS
 
 SOLVING FOR HEAD 
 FLOW MODEL IS TRANSIENT
 FLOW MODEL CONTAINS CONSTANT-HEAD CELLS


 MAXIMUM STEPSIZE DURING WHICH ANY PARTICLE CANNOT MOVE MORE THAN ONE CELL
 =  5.749    (WHEN MIN. R.F.=1)  AT K=   7, I=   1, J=  50

 MAXIMUM STEPSIZE WHICH MEETS STABILITY CRITERION OF THE ADVECTION TERM
 (FOR PURE FINITE-DIFFERENCE OPTION, MIXELM=0) 
 =  3.137    (WHEN MIN. R.F.=1)  AT K=   2, I=   1, J=  81


 TOTAL NUMBER OF POINT SOURCES/SINKS PRESENT IN THE FLOW MODEL =    62

 MAXIMUM STEPSIZE WHICH MEETS STABILITY CRITERION OF THE SINK & SOURCE TERM
 =  74.79    (WHEN MIN. R.F.=1)  AT K=   2, I=   1, J= 120

 MAXIMUM STEPSIZE WHICH MEETS STABILITY CRITERION OF THE DISPERSION TERM
 =  20.29    (WHEN MIN. R.F.=1)  AT K=   1, I=   1, J=  31
     1 CALLS TO GCG PACKAGE FOR TRANSPORT TIME STEP   3 IN FLOW TIME STEP 139 STRESS PERIOD   1
     6 TOTAL ITERATIONS
 
 SOLVING FOR HEAD 
 FLOW MODEL IS TRANSIENT
 FLOW MODEL CONTAINS CONSTANT-HEAD CELLS


 MAXIMUM STEPSIZE DURING WHICH ANY PARTICLE CANNOT MOVE MORE THAN ONE CELL
 =  5.706    (WHEN MIN. R.F.=1)  AT K=   2, I=   1, J=  82

 MAXIMUM STEPSIZE WHICH MEETS STABILITY CRITERION OF THE ADVECTION TERM
 (FOR PURE FINITE-DIFFERENCE OPTION, MIXELM=0) 
 =  3.296    (WHEN MIN. R.F.=1)  AT K=   2, I=   1, J=  81


 TOTAL NUMBER OF POINT SOURCES/SINKS PRESENT IN THE FLOW MODEL =    62

 MAXIMUM STEPSIZE WHICH MEETS STABILITY CRITERION OF THE SINK & SOURCE TERM
 =  74.16    (WHEN MIN. R.F.=1)  AT K=   2, I=   1, J= 120

 MAXIMUM STEPSIZE WHICH MEETS STABILITY CRITERION OF THE DISPERSION TERM
 =  20.29    (WHEN MIN. R.F.=1)  AT K=   1, I=   1, J=  31
     1 CALLS TO GCG PACKAGE FOR TRANSPORT TIME STEP   4 IN FLOW TIME STEP 139 STRESS PERIOD   1
     6 TOTAL ITERATIONS
 
 SOLVING FOR HEAD 
 FLOW MODEL IS TRANSIENT
 FLOW MODEL CONTAINS CONSTANT-HEAD CELLS


 MAXIMUM STEPSIZE DURING WHICH ANY PARTICLE CANNOT MOVE MORE THAN ONE CELL
 =  5.688    (WHEN MIN. R.F.=1)  AT K=   2, I=   1, J=  82

 MAXIMUM STEPSIZE WHICH MEETS STABILITY CRITERION OF THE ADVECTION TERM
 (FOR PURE FINITE-DIFFERENCE OPTION, MIXELM=0) 
 =  3.052    (WHEN MIN. R.F.=1)  AT K=   2, I=   1, J=  80


 TOTAL NUMBER OF POINT SOURCES/SINKS PRESENT IN THE FLOW MODEL =    62

 MAXIMUM STEPSIZE WHICH MEETS STABILITY CRITERION OF THE SINK & SOURCE TERM
 =  69.81    (WHEN MIN. R.F.=1)  AT K=   2, I=   1, J= 120

 MAXIMUM STEPSIZE WHICH MEETS STABILITY CRITERION OF THE DISPERSION TERM
 =  20.29    (WHEN MIN. R.F.=1)  AT K=   1, I=   1, J=  31
     1 CALLS TO GCG PACKAGE FOR TRANSPORT TIME STEP   5 IN FLOW TIME STEP 139 STRESS PERIOD   1
     3 TOTAL ITERATIONS
  MAXIMUM CONCENTRATION CHANGES FOR EACH ITERATION:
  MAX. CHANGE LAYER,ROW,COL MAX. CHANGE LAYER,ROW,COL MAX. CHANGE LAYER,ROW,COL MAX. CHANGE LAYER,ROW,COL MAX. CHANGE LAYER,ROW,COL
 ------------------------------------------------------------------------------------------------------------------------------------
   0.1652E-02 (  2,  1, 82)  0.2522E-05 (  2,  1, 47)  0.6548E-08 (  3,  1, 80)


                                          ================================================
                                                         FROM TIME =   1390.0     TO    1400.0    

 
 SOLVING FOR HEAD 
 FLOW MODEL IS TRANSIENT
 FLOW MODEL CONTAINS CONSTANT-HEAD CELLS


 MAXIMUM STEPSIZE DURING WHICH ANY PARTICLE CANNOT MOVE MORE THAN ONE CELL
 =  5.687    (WHEN MIN. R.F.=1)  AT K=   2, I=   1, J=  82

 MAXIMUM STEPSIZE WHICH MEETS STABILITY CRITERION OF THE ADVECTION TERM
 (FOR PURE FINITE-DIFFERENCE OPTION, MIXELM=0) 
 =  3.044    (WHEN MIN. R.F.=1)  AT K=   2, I=   1, J=  80


 TOTAL NUMBER OF POINT SOURCES/SINKS PRESENT IN THE FLOW MODEL =    62

 MAXIMUM STEPSIZE WHICH MEETS STABILITY CRITERION OF THE SINK & SOURCE TERM
 =  75.00    (WHEN MIN. R.F.=1)  AT K=   2, I=   1, J= 120

 MAXIMUM STEPSIZE WHICH MEETS STABILITY CRITERION OF THE DISPERSION TERM
 =  20.29    (WHEN MIN. R.F.=1)  AT K=   1, I=   1, J=  31


     1 CALLS TO GCG PACKAGE FOR TRANSPORT TIME STEP   1 IN FLOW TIME STEP 140 STRESS PERIOD   1
     6 TOTAL ITERATIONS

 NO OUTPUT CONTROL FOR STRESS PERIOD    1   TIME STEP 140
 
 SOLVING FOR HEAD 
 FLOW MODEL IS TRANSIENT
 FLOW MODEL CONTAINS CONSTANT-HEAD CELLS


 MAXIMUM STEPSIZE DURING WHICH ANY PARTICLE CANNOT MOVE MORE THAN ONE CELL
 =  5.691    (WHEN MIN. R.F.=1)  AT K=   3, I=   1, J=  80

 MAXIMUM STEPSIZE WHICH MEETS STABILITY CRITERION OF THE ADVECTION TERM
 (FOR PURE FINITE-DIFFERENCE OPTION, MIXELM=0) 
 =  2.894    (WHEN MIN. R.F.=1)  AT K=   2, I=   1, J=  80


 TOTAL NUMBER OF POINT SOURCES/SINKS PRESENT IN THE FLOW MODEL =    62

 MAXIMUM STEPSIZE WHICH MEETS STABILITY CRITERION OF THE SINK & SOURCE TERM
 =  72.78    (WHEN MIN. R.F.=1)  AT K=   2, I=   1, J= 120

 MAXIMUM STEPSIZE WHICH MEETS STABILITY CRITERION OF THE DISPERSION TERM
 =  20.29    (WHEN MIN. R.F.=1)  AT K=   1, I=   1, J=  31
     1 CALLS TO GCG PACKAGE FOR TRANSPORT TIME STEP   2 IN FLOW TIME STEP 140 STRESS PERIOD   1
     6 TOTAL ITERATIONS
 
 SOLVING FOR HEAD 
 FLOW MODEL IS TRANSIENT
 FLOW MODEL CONTAINS CONSTANT-HEAD CELLS


 MAXIMUM STEPSIZE DURING WHICH ANY PARTICLE CANNOT MOVE MORE THAN ONE CELL
 =  5.534    (WHEN MIN. R.F.=1)  AT K=   2, I=   1, J=  81

 MAXIMUM STEPSIZE WHICH MEETS STABILITY CRITERION OF THE ADVECTION TERM
 (FOR PURE FINITE-DIFFERENCE OPTION, MIXELM=0) 
 =  2.888    (WHEN MIN. R.F.=1)  AT K=   2, I=   1, J=  80


 TOTAL NUMBER OF POINT SOURCES/SINKS PRESENT IN THE FLOW MODEL =    62

 MAXIMUM STEPSIZE WHICH MEETS STABILITY CRITERION OF THE SINK & SOURCE TERM
 =  72.27    (WHEN MIN. R.F.=1)  AT K=   2, I=   1, J= 120

 MAXIMUM STEPSIZE WHICH MEETS STABILITY CRITERION OF THE DISPERSION TERM
 =  20.29    (WHEN MIN. R.F.=1)  AT K=   1, I=   1, J=  31
     1 CALLS TO GCG PACKAGE FOR TRANSPORT TIME STEP   3 IN FLOW TIME STEP 140 STRESS PERIOD   1
     6 TOTAL ITERATIONS
 
 SOLVING FOR HEAD 
 FLOW MODEL IS TRANSIENT
 FLOW MODEL CONTAINS CONSTANT-HEAD CELLS


 MAXIMUM STEPSIZE DURING WHICH ANY PARTICLE CANNOT MOVE MORE THAN ONE CELL
 =  5.446    (WHEN MIN. R.F.=1)  AT K=   2, I=   1, J=  81

 MAXIMUM STEPSIZE WHICH MEETS STABILITY CRITERION OF THE ADVECTION TERM
 (FOR PURE FINITE-DIFFERENCE OPTION, MIXELM=0) 
 =  3.049    (WHEN MIN. R.F.=1)  AT K=   2, I=   1, J=  80


 TOTAL NUMBER OF POINT SOURCES/SINKS PRESENT IN THE FLOW MODEL =    62

 MAXIMUM STEPSIZE WHICH MEETS STABILITY CRITERION OF THE SINK & SOURCE TERM
 =  71.84    (WHEN MIN. R.F.=1)  AT K=   2, I=   1, J= 120

 MAXIMUM STEPSIZE WHICH MEETS STABILITY CRITERION OF THE DISPERSION TERM
 =  20.29    (WHEN MIN. R.F.=1)  AT K=   1, I=   1, J=  31
     1 CALLS TO GCG PACKAGE FOR TRANSPORT TIME STEP   4 IN FLOW TIME STEP 140 STRESS PERIOD   1
     6 TOTAL ITERATIONS
 
 SOLVING FOR HEAD 
 FLOW MODEL IS TRANSIENT
 FLOW MODEL CONTAINS CONSTANT-HEAD CELLS


 MAXIMUM STEPSIZE DURING WHICH ANY PARTICLE CANNOT MOVE MORE THAN ONE CELL
 =  5.447    (WHEN MIN. R.F.=1)  AT K=   2, I=   1, J=  81

 MAXIMUM STEPSIZE WHICH MEETS STABILITY CRITERION OF THE ADVECTION TERM
 (FOR PURE FINITE-DIFFERENCE OPTION, MIXELM=0) 
 =  3.140    (WHEN MIN. R.F.=1)  AT K=   2, I=   1, J=  79


 TOTAL NUMBER OF POINT SOURCES/SINKS PRESENT IN THE FLOW MODEL =    62

 MAXIMUM STEPSIZE WHICH MEETS STABILITY CRITERION OF THE SINK & SOURCE TERM
 =  70.99    (WHEN MIN. R.F.=1)  AT K=   2, I=   1, J= 120

 MAXIMUM STEPSIZE WHICH MEETS STABILITY CRITERION OF THE DISPERSION TERM
 =  20.29    (WHEN MIN. R.F.=1)  AT K=   1, I=   1, J=  31
     1 CALLS TO GCG PACKAGE FOR TRANSPORT TIME STEP   5 IN FLOW TIME STEP 140 STRESS PERIOD   1
     5 TOTAL ITERATIONS
  MAXIMUM CONCENTRATION CHANGES FOR EACH ITERATION:
  MAX. CHANGE LAYER,ROW,COL MAX. CHANGE LAYER,ROW,COL MAX. CHANGE LAYER,ROW,COL MAX. CHANGE LAYER,ROW,COL MAX. CHANGE LAYER,ROW,COL
 ------------------------------------------------------------------------------------------------------------------------------------
   0.1682E-01 (  2,  1, 81)  0.3177E-03 (  2,  1, 79)  0.8796E-05 (  3,  1, 79)  0.1950E-06 (  4,  1, 79)  0.4206E-08 (  4,  1, 78)


                                          ================================================
                                                         FROM TIME =   1400.0     TO    1410.0    

 
 SOLVING FOR HEAD 
 FLOW MODEL IS TRANSIENT
 FLOW MODEL CONTAINS CONSTANT-HEAD CELLS


 MAXIMUM STEPSIZE DURING WHICH ANY PARTICLE CANNOT MOVE MORE THAN ONE CELL
 =  5.468    (WHEN MIN. R.F.=1)  AT K=   2, I=   1, J=  81

 MAXIMUM STEPSIZE WHICH MEETS STABILITY CRITERION OF THE ADVECTION TERM
 (FOR PURE FINITE-DIFFERENCE OPTION, MIXELM=0) 
 =  3.031    (WHEN MIN. R.F.=1)  AT K=   2, I=   1, J=  79


 TOTAL NUMBER OF POINT SOURCES/SINKS PRESENT IN THE FLOW MODEL =    62

 MAXIMUM STEPSIZE WHICH MEETS STABILITY CRITERION OF THE SINK & SOURCE TERM
 =  74.77    (WHEN MIN. R.F.=1)  AT K=   2, I=   1, J= 120

 MAXIMUM STEPSIZE WHICH MEETS STABILITY CRITERION OF THE DISPERSION TERM
 =  20.29    (WHEN MIN. R.F.=1)  AT K=   1, I=   1, J=  31


     1 CALLS TO GCG PACKAGE FOR TRANSPORT TIME STEP   1 IN FLOW TIME STEP 141 STRESS PERIOD   1
     6 TOTAL ITERATIONS

 NO OUTPUT CONTROL FOR STRESS PERIOD    1   TIME STEP 141
 
 SOLVING FOR HEAD 
 FLOW MODEL IS TRANSIENT
 FLOW MODEL CONTAINS CONSTANT-HEAD CELLS


 MAXIMUM STEPSIZE DURING WHICH ANY PARTICLE CANNOT MOVE MORE THAN ONE CELL
 =  5.381    (WHEN MIN. R.F.=1)  AT K=   3, I=   1, J=  72

 MAXIMUM STEPSIZE WHICH MEETS STABILITY CRITERION OF THE ADVECTION TERM
 (FOR PURE FINITE-DIFFERENCE OPTION, MIXELM=0) 
 =  2.895    (WHEN MIN. R.F.=1)  AT K=   2, I=   1, J=  79


 TOTAL NUMBER OF POINT SOURCES/SINKS PRESENT IN THE FLOW MODEL =    62

 MAXIMUM STEPSIZE WHICH MEETS STABILITY CRITERION OF THE SINK & SOURCE TERM
 =  72.69    (WHEN MIN. R.F.=1)  AT K=   2, I=   1, J= 120

 MAXIMUM STEPSIZE WHICH MEETS STABILITY CRITERION OF THE DISPERSION TERM
 =  20.29    (WHEN MIN. R.F.=1)  AT K=   1, I=   1, J=  31
     1 CALLS TO GCG PACKAGE FOR TRANSPORT TIME STEP   2 IN FLOW TIME STEP 141 STRESS PERIOD   1
     6 TOTAL ITERATIONS
 
 SOLVING FOR HEAD 
 FLOW MODEL IS TRANSIENT
 FLOW MODEL CONTAINS CONSTANT-HEAD CELLS


 MAXIMUM STEPSIZE DURING WHICH ANY PARTICLE CANNOT MOVE MORE THAN ONE CELL
 =  5.148    (WHEN MIN. R.F.=1)  AT K=   4, I=   1, J=  72

 MAXIMUM STEPSIZE WHICH MEETS STABILITY CRITERION OF THE ADVECTION TERM
 (FOR PURE FINITE-DIFFERENCE OPTION, MIXELM=0) 
 =  2.884    (WHEN MIN. R.F.=1)  AT K=   2, I=   1, J=  79


 TOTAL NUMBER OF POINT SOURCES/SINKS PRESENT IN THE FLOW MODEL =    62

 MAXIMUM STEPSIZE WHICH MEETS STABILITY CRITERION OF THE SINK & SOURCE TERM
 =  72.94    (WHEN MIN. R.F.=1)  AT K=   2, I=   1, J= 120

 MAXIMUM STEPSIZE WHICH MEETS STABILITY CRITERION OF THE DISPERSION TERM
 =  20.29    (WHEN MIN. R.F.=1)  AT K=   1, I=   1, J=  31
     1 CALLS TO GCG PACKAGE FOR TRANSPORT TIME STEP   3 IN FLOW TIME STEP 141 STRESS PERIOD   1
     6 TOTAL ITERATIONS
 
 SOLVING FOR HEAD 
 FLOW MODEL IS TRANSIENT
 FLOW MODEL CONTAINS CONSTANT-HEAD CELLS


 MAXIMUM STEPSIZE DURING WHICH ANY PARTICLE CANNOT MOVE MORE THAN ONE CELL
 =  4.975    (WHEN MIN. R.F.=1)  AT K=   4, I=   1, J=  72

 MAXIMUM STEPSIZE WHICH MEETS STABILITY CRITERION OF THE ADVECTION TERM
 (FOR PURE FINITE-DIFFERENCE OPTION, MIXELM=0) 
 =  2.996    (WHEN MIN. R.F.=1)  AT K=   2, I=   1, J=  79


 TOTAL NUMBER OF POINT SOURCES/SINKS PRESENT IN THE FLOW MODEL =    62

 MAXIMUM STEPSIZE WHICH MEETS STABILITY CRITERION OF THE SINK & SOURCE TERM
 =  73.25    (WHEN MIN. R.F.=1)  AT K=   2, I=   1, J= 120

 MAXIMUM STEPSIZE WHICH MEETS STABILITY CRITERION OF THE DISPERSION TERM
 =  20.29    (WHEN MIN. R.F.=1)  AT K=   1, I=   1, J=  31
     1 CALLS TO GCG PACKAGE FOR TRANSPORT TIME STEP   4 IN FLOW TIME STEP 141 STRESS PERIOD   1
     6 TOTAL ITERATIONS
 
 SOLVING FOR HEAD 
 FLOW MODEL IS TRANSIENT
 FLOW MODEL CONTAINS CONSTANT-HEAD CELLS


 MAXIMUM STEPSIZE DURING WHICH ANY PARTICLE CANNOT MOVE MORE THAN ONE CELL
 =  4.856    (WHEN MIN. R.F.=1)  AT K=   4, I=   1, J=  72

 MAXIMUM STEPSIZE WHICH MEETS STABILITY CRITERION OF THE ADVECTION TERM
 (FOR PURE FINITE-DIFFERENCE OPTION, MIXELM=0) 
 =  3.161    (WHEN MIN. R.F.=1)  AT K=   2, I=   1, J=  41


 TOTAL NUMBER OF POINT SOURCES/SINKS PRESENT IN THE FLOW MODEL =    62

 MAXIMUM STEPSIZE WHICH MEETS STABILITY CRITERION OF THE SINK & SOURCE TERM
 =  71.69    (WHEN MIN. R.F.=1)  AT K=   2, I=   1, J= 120

 MAXIMUM STEPSIZE WHICH MEETS STABILITY CRITERION OF THE DISPERSION TERM
 =  20.29    (WHEN MIN. R.F.=1)  AT K=   1, I=   1, J=  31
     1 CALLS TO GCG PACKAGE FOR TRANSPORT TIME STEP   5 IN FLOW TIME STEP 141 STRESS PERIOD   1
     5 TOTAL ITERATIONS
  MAXIMUM CONCENTRATION CHANGES FOR EACH ITERATION:
  MAX. CHANGE LAYER,ROW,COL MAX. CHANGE LAYER,ROW,COL MAX. CHANGE LAYER,ROW,COL MAX. CHANGE LAYER,ROW,COL MAX. CHANGE LAYER,ROW,COL
 ------------------------------------------------------------------------------------------------------------------------------------
   0.1631E-01 (  2,  1, 80)  0.3056E-03 (  2,  1, 78)  0.7340E-05 (  3,  1, 78)  0.1210E-06 (  4,  1, 78)  0.3499E-08 (  3,  1, 45)


                                          ================================================
                                                         FROM TIME =   1410.0     TO    1420.0    

 
 SOLVING FOR HEAD 
 FLOW MODEL IS TRANSIENT
 FLOW MODEL CONTAINS CONSTANT-HEAD CELLS


 MAXIMUM STEPSIZE DURING WHICH ANY PARTICLE CANNOT MOVE MORE THAN ONE CELL
 =  4.814    (WHEN MIN. R.F.=1)  AT K=   4, I=   1, J=  72

 MAXIMUM STEPSIZE WHICH MEETS STABILITY CRITERION OF THE ADVECTION TERM
 (FOR PURE FINITE-DIFFERENCE OPTION, MIXELM=0) 
 =  3.124    (WHEN MIN. R.F.=1)  AT K=   2, I=   1, J=  41


 TOTAL NUMBER OF POINT SOURCES/SINKS PRESENT IN THE FLOW MODEL =    62

 MAXIMUM STEPSIZE WHICH MEETS STABILITY CRITERION OF THE SINK & SOURCE TERM
 =  75.64    (WHEN MIN. R.F.=1)  AT K=   2, I=   1, J= 120

 MAXIMUM STEPSIZE WHICH MEETS STABILITY CRITERION OF THE DISPERSION TERM
 =  20.29    (WHEN MIN. R.F.=1)  AT K=   1, I=   1, J=  31


     1 CALLS TO GCG PACKAGE FOR TRANSPORT TIME STEP   1 IN FLOW TIME STEP 142 STRESS PERIOD   1
     6 TOTAL ITERATIONS

 NO OUTPUT CONTROL FOR STRESS PERIOD    1   TIME STEP 142
 
 SOLVING FOR HEAD 
 FLOW MODEL IS TRANSIENT
 FLOW MODEL CONTAINS CONSTANT-HEAD CELLS


 MAXIMUM STEPSIZE DURING WHICH ANY PARTICLE CANNOT MOVE MORE THAN ONE CELL
 =  4.757    (WHEN MIN. R.F.=1)  AT K=   4, I=   1, J=  72

 MAXIMUM STEPSIZE WHICH MEETS STABILITY CRITERION OF THE ADVECTION TERM
 (FOR PURE FINITE-DIFFERENCE OPTION, MIXELM=0) 
 =  3.036    (WHEN MIN. R.F.=1)  AT K=   2, I=   1, J=  78


 TOTAL NUMBER OF POINT SOURCES/SINKS PRESENT IN THE FLOW MODEL =    62

 MAXIMUM STEPSIZE WHICH MEETS STABILITY CRITERION OF THE SINK & SOURCE TERM
 =  73.51    (WHEN MIN. R.F.=1)  AT K=   2, I=   1, J= 120

 MAXIMUM STEPSIZE WHICH MEETS STABILITY CRITERION OF THE DISPERSION TERM
 =  20.29    (WHEN MIN. R.F.=1)  AT K=   1, I=   1, J=  31
     1 CALLS TO GCG PACKAGE FOR TRANSPORT TIME STEP   2 IN FLOW TIME STEP 142 STRESS PERIOD   1
     6 TOTAL ITERATIONS
 
 SOLVING FOR HEAD 
 FLOW MODEL IS TRANSIENT
 FLOW MODEL CONTAINS CONSTANT-HEAD CELLS


 MAXIMUM STEPSIZE DURING WHICH ANY PARTICLE CANNOT MOVE MORE THAN ONE CELL
 =  4.743    (WHEN MIN. R.F.=1)  AT K=   4, I=   1, J=  72

 MAXIMUM STEPSIZE WHICH MEETS STABILITY CRITERION OF THE ADVECTION TERM
 (FOR PURE FINITE-DIFFERENCE OPTION, MIXELM=0) 
 =  2.979    (WHEN MIN. R.F.=1)  AT K=   2, I=   1, J=  78


 TOTAL NUMBER OF POINT SOURCES/SINKS PRESENT IN THE FLOW MODEL =    62

 MAXIMUM STEPSIZE WHICH MEETS STABILITY CRITERION OF THE SINK & SOURCE TERM
 =  74.86    (WHEN MIN. R.F.=1)  AT K=   2, I=   1, J= 120

 MAXIMUM STEPSIZE WHICH MEETS STABILITY CRITERION OF THE DISPERSION TERM
 =  20.29    (WHEN MIN. R.F.=1)  AT K=   1, I=   1, J=  31
     1 CALLS TO GCG PACKAGE FOR TRANSPORT TIME STEP   3 IN FLOW TIME STEP 142 STRESS PERIOD   1
     6 TOTAL ITERATIONS
 
 SOLVING FOR HEAD 
 FLOW MODEL IS TRANSIENT
 FLOW MODEL CONTAINS CONSTANT-HEAD CELLS


 MAXIMUM STEPSIZE DURING WHICH ANY PARTICLE CANNOT MOVE MORE THAN ONE CELL
 =  4.769    (WHEN MIN. R.F.=1)  AT K=   4, I=   1, J=  72

 MAXIMUM STEPSIZE WHICH MEETS STABILITY CRITERION OF THE ADVECTION TERM
 (FOR PURE FINITE-DIFFERENCE OPTION, MIXELM=0) 
 =  3.035    (WHEN MIN. R.F.=1)  AT K=   2, I=   1, J=  78


 TOTAL NUMBER OF POINT SOURCES/SINKS PRESENT IN THE FLOW MODEL =    62

 MAXIMUM STEPSIZE WHICH MEETS STABILITY CRITERION OF THE SINK & SOURCE TERM
 =  75.76    (WHEN MIN. R.F.=1)  AT K=   2, I=   1, J= 120

 MAXIMUM STEPSIZE WHICH MEETS STABILITY CRITERION OF THE DISPERSION TERM
 =  20.29    (WHEN MIN. R.F.=1)  AT K=   1, I=   1, J=  31
     1 CALLS TO GCG PACKAGE FOR TRANSPORT TIME STEP   4 IN FLOW TIME STEP 142 STRESS PERIOD   1
     6 TOTAL ITERATIONS
 
 SOLVING FOR HEAD 
 FLOW MODEL IS TRANSIENT
 FLOW MODEL CONTAINS CONSTANT-HEAD CELLS


 MAXIMUM STEPSIZE DURING WHICH ANY PARTICLE CANNOT MOVE MORE THAN ONE CELL
 =  4.817    (WHEN MIN. R.F.=1)  AT K=   4, I=   1, J=  72

 MAXIMUM STEPSIZE WHICH MEETS STABILITY CRITERION OF THE ADVECTION TERM
 (FOR PURE FINITE-DIFFERENCE OPTION, MIXELM=0) 
 =  3.066    (WHEN MIN. R.F.=1)  AT K=   2, I=   1, J=  42


 TOTAL NUMBER OF POINT SOURCES/SINKS PRESENT IN THE FLOW MODEL =    62

 MAXIMUM STEPSIZE WHICH MEETS STABILITY CRITERION OF THE SINK & SOURCE TERM
 =  73.96    (WHEN MIN. R.F.=1)  AT K=   2, I=   1, J= 120

 MAXIMUM STEPSIZE WHICH MEETS STABILITY CRITERION OF THE DISPERSION TERM
 =  20.29    (WHEN MIN. R.F.=1)  AT K=   1, I=   1, J=  31
     1 CALLS TO GCG PACKAGE FOR TRANSPORT TIME STEP   5 IN FLOW TIME STEP 142 STRESS PERIOD   1
     4 TOTAL ITERATIONS
  MAXIMUM CONCENTRATION CHANGES FOR EACH ITERATION:
  MAX. CHANGE LAYER,ROW,COL MAX. CHANGE LAYER,ROW,COL MAX. CHANGE LAYER,ROW,COL MAX. CHANGE LAYER,ROW,COL MAX. CHANGE LAYER,ROW,COL
 ------------------------------------------------------------------------------------------------------------------------------------
   0.1288E-01 (  2,  1, 79)  0.1316E-03 (  2,  1, 79)  0.2276E-05 (  3,  1, 77)  0.3937E-07 (  3,  1, 80)


                                          ================================================
                                                         FROM TIME =   1420.0     TO    1430.0    

 
 SOLVING FOR HEAD 
 FLOW MODEL IS TRANSIENT
 FLOW MODEL CONTAINS CONSTANT-HEAD CELLS


 MAXIMUM STEPSIZE DURING WHICH ANY PARTICLE CANNOT MOVE MORE THAN ONE CELL
 =  4.840    (WHEN MIN. R.F.=1)  AT K=   4, I=   1, J=  72

 MAXIMUM STEPSIZE WHICH MEETS STABILITY CRITERION OF THE ADVECTION TERM
 (FOR PURE FINITE-DIFFERENCE OPTION, MIXELM=0) 
 =  3.045    (WHEN MIN. R.F.=1)  AT K=   2, I=   1, J=  42


 TOTAL NUMBER OF POINT SOURCES/SINKS PRESENT IN THE FLOW MODEL =    62

 MAXIMUM STEPSIZE WHICH MEETS STABILITY CRITERION OF THE SINK & SOURCE TERM
 =  79.66    (WHEN MIN. R.F.=1)  AT K=   2, I=   1, J= 120

 MAXIMUM STEPSIZE WHICH MEETS STABILITY CRITERION OF THE DISPERSION TERM
 =  20.29    (WHEN MIN. R.F.=1)  AT K=   1, I=   1, J=  31


     1 CALLS TO GCG PACKAGE FOR TRANSPORT TIME STEP   1 IN FLOW TIME STEP 143 STRESS PERIOD   1
     6 TOTAL ITERATIONS

 NO OUTPUT CONTROL FOR STRESS PERIOD    1   TIME STEP 143
 
 SOLVING FOR HEAD 
 FLOW MODEL IS TRANSIENT
 FLOW MODEL CONTAINS CONSTANT-HEAD CELLS


 MAXIMUM STEPSIZE DURING WHICH ANY PARTICLE CANNOT MOVE MORE THAN ONE CELL
 =  4.920    (WHEN MIN. R.F.=1)  AT K=   4, I=   1, J=  72

 MAXIMUM STEPSIZE WHICH MEETS STABILITY CRITERION OF THE ADVECTION TERM
 (FOR PURE FINITE-DIFFERENCE OPTION, MIXELM=0) 
 =  3.049    (WHEN MIN. R.F.=1)  AT K=   2, I=   1, J=  42


 TOTAL NUMBER OF POINT SOURCES/SINKS PRESENT IN THE FLOW MODEL =    62

 MAXIMUM STEPSIZE WHICH MEETS STABILITY CRITERION OF THE SINK & SOURCE TERM
 =  77.21    (WHEN MIN. R.F.=1)  AT K=   2, I=   1, J= 120

 MAXIMUM STEPSIZE WHICH MEETS STABILITY CRITERION OF THE DISPERSION TERM
 =  20.29    (WHEN MIN. R.F.=1)  AT K=   1, I=   1, J=  31
     1 CALLS TO GCG PACKAGE FOR TRANSPORT TIME STEP   2 IN FLOW TIME STEP 143 STRESS PERIOD   1
     6 TOTAL ITERATIONS
 
 SOLVING FOR HEAD 
 FLOW MODEL IS TRANSIENT
 FLOW MODEL CONTAINS CONSTANT-HEAD CELLS


 MAXIMUM STEPSIZE DURING WHICH ANY PARTICLE CANNOT MOVE MORE THAN ONE CELL
 =  4.976    (WHEN MIN. R.F.=1)  AT K=   5, I=   1, J=  72

 MAXIMUM STEPSIZE WHICH MEETS STABILITY CRITERION OF THE ADVECTION TERM
 (FOR PURE FINITE-DIFFERENCE OPTION, MIXELM=0) 
 =  3.106    (WHEN MIN. R.F.=1)  AT K=   2, I=   1, J=  77


 TOTAL NUMBER OF POINT SOURCES/SINKS PRESENT IN THE FLOW MODEL =    62

 MAXIMUM STEPSIZE WHICH MEETS STABILITY CRITERION OF THE SINK & SOURCE TERM
 =  78.24    (WHEN MIN. R.F.=1)  AT K=   2, I=   1, J= 120

 MAXIMUM STEPSIZE WHICH MEETS STABILITY CRITERION OF THE DISPERSION TERM
 =  20.29    (WHEN MIN. R.F.=1)  AT K=   1, I=   1, J=  31
     1 CALLS TO GCG PACKAGE FOR TRANSPORT TIME STEP   3 IN FLOW TIME STEP 143 STRESS PERIOD   1
     6 TOTAL ITERATIONS
 
 SOLVING FOR HEAD 
 FLOW MODEL IS TRANSIENT
 FLOW MODEL CONTAINS CONSTANT-HEAD CELLS


 MAXIMUM STEPSIZE DURING WHICH ANY PARTICLE CANNOT MOVE MORE THAN ONE CELL
 =  5.048    (WHEN MIN. R.F.=1)  AT K=   5, I=   1, J=  72

 MAXIMUM STEPSIZE WHICH MEETS STABILITY CRITERION OF THE ADVECTION TERM
 (FOR PURE FINITE-DIFFERENCE OPTION, MIXELM=0) 
 =  3.055    (WHEN MIN. R.F.=1)  AT K=   2, I=   1, J=  77


 TOTAL NUMBER OF POINT SOURCES/SINKS PRESENT IN THE FLOW MODEL =    62

 MAXIMUM STEPSIZE WHICH MEETS STABILITY CRITERION OF THE SINK & SOURCE TERM
 =  79.27    (WHEN MIN. R.F.=1)  AT K=   2, I=   1, J= 120

 MAXIMUM STEPSIZE WHICH MEETS STABILITY CRITERION OF THE DISPERSION TERM
 =  20.29    (WHEN MIN. R.F.=1)  AT K=   1, I=   1, J=  31
     1 CALLS TO GCG PACKAGE FOR TRANSPORT TIME STEP   4 IN FLOW TIME STEP 143 STRESS PERIOD   1
     6 TOTAL ITERATIONS
 
 SOLVING FOR HEAD 
 FLOW MODEL IS TRANSIENT
 FLOW MODEL CONTAINS CONSTANT-HEAD CELLS


 MAXIMUM STEPSIZE DURING WHICH ANY PARTICLE CANNOT MOVE MORE THAN ONE CELL
 =  5.134    (WHEN MIN. R.F.=1)  AT K=   5, I=   1, J=  72

 MAXIMUM STEPSIZE WHICH MEETS STABILITY CRITERION OF THE ADVECTION TERM
 (FOR PURE FINITE-DIFFERENCE OPTION, MIXELM=0) 
 =  3.104    (WHEN MIN. R.F.=1)  AT K=   2, I=   1, J=  77


 TOTAL NUMBER OF POINT SOURCES/SINKS PRESENT IN THE FLOW MODEL =    62

 MAXIMUM STEPSIZE WHICH MEETS STABILITY CRITERION OF THE SINK & SOURCE TERM
 =  77.59    (WHEN MIN. R.F.=1)  AT K=   2, I=   1, J= 120

 MAXIMUM STEPSIZE WHICH MEETS STABILITY CRITERION OF THE DISPERSION TERM
 =  20.29    (WHEN MIN. R.F.=1)  AT K=   1, I=   1, J=  31
     1 CALLS TO GCG PACKAGE FOR TRANSPORT TIME STEP   5 IN FLOW TIME STEP 143 STRESS PERIOD   1
     4 TOTAL ITERATIONS
  MAXIMUM CONCENTRATION CHANGES FOR EACH ITERATION:
  MAX. CHANGE LAYER,ROW,COL MAX. CHANGE LAYER,ROW,COL MAX. CHANGE LAYER,ROW,COL MAX. CHANGE LAYER,ROW,COL MAX. CHANGE LAYER,ROW,COL
 ------------------------------------------------------------------------------------------------------------------------------------
   0.1308E-01 (  2,  1, 78)  0.1615E-03 (  2,  1, 78)  0.2557E-05 (  2,  1, 79)  0.6530E-07 (  3,  1, 74)


                                          ================================================
                                                         FROM TIME =   1430.0     TO    1440.0    

 
 SOLVING FOR HEAD 
 FLOW MODEL IS TRANSIENT
 FLOW MODEL CONTAINS CONSTANT-HEAD CELLS


 MAXIMUM STEPSIZE DURING WHICH ANY PARTICLE CANNOT MOVE MORE THAN ONE CELL
 =  5.169    (WHEN MIN. R.F.=1)  AT K=   5, I=   1, J=  72

 MAXIMUM STEPSIZE WHICH MEETS STABILITY CRITERION OF THE ADVECTION TERM
 (FOR PURE FINITE-DIFFERENCE OPTION, MIXELM=0) 
 =  3.135    (WHEN MIN. R.F.=1)  AT K=   2, I=   1, J=  43


 TOTAL NUMBER OF POINT SOURCES/SINKS PRESENT IN THE FLOW MODEL =    62

 MAXIMUM STEPSIZE WHICH MEETS STABILITY CRITERION OF THE SINK & SOURCE TERM
 =  83.40    (WHEN MIN. R.F.=1)  AT K=   2, I=   1, J= 120

 MAXIMUM STEPSIZE WHICH MEETS STABILITY CRITERION OF THE DISPERSION TERM
 =  20.29    (WHEN MIN. R.F.=1)  AT K=   1, I=   1, J=  31


     1 CALLS TO GCG PACKAGE FOR TRANSPORT TIME STEP   1 IN FLOW TIME STEP 144 STRESS PERIOD   1
     6 TOTAL ITERATIONS

 NO OUTPUT CONTROL FOR STRESS PERIOD    1   TIME STEP 144
 
 SOLVING FOR HEAD 
 FLOW MODEL IS TRANSIENT
 FLOW MODEL CONTAINS CONSTANT-HEAD CELLS


 MAXIMUM STEPSIZE DURING WHICH ANY PARTICLE CANNOT MOVE MORE THAN ONE CELL
 =  5.177    (WHEN MIN. R.F.=1)  AT K=   4, I=   1, J=  50

 MAXIMUM STEPSIZE WHICH MEETS STABILITY CRITERION OF THE ADVECTION TERM
 (FOR PURE FINITE-DIFFERENCE OPTION, MIXELM=0) 
 =  3.086    (WHEN MIN. R.F.=1)  AT K=   2, I=   1, J=  43


 TOTAL NUMBER OF POINT SOURCES/SINKS PRESENT IN THE FLOW MODEL =    62

 MAXIMUM STEPSIZE WHICH MEETS STABILITY CRITERION OF THE SINK & SOURCE TERM
 =  81.55    (WHEN MIN. R.F.=1)  AT K=   2, I=   1, J= 120

 MAXIMUM STEPSIZE WHICH MEETS STABILITY CRITERION OF THE DISPERSION TERM
 =  20.29    (WHEN MIN. R.F.=1)  AT K=   1, I=   1, J=  31
     1 CALLS TO GCG PACKAGE FOR TRANSPORT TIME STEP   2 IN FLOW TIME STEP 144 STRESS PERIOD   1
     6 TOTAL ITERATIONS
 
 SOLVING FOR HEAD 
 FLOW MODEL IS TRANSIENT
 FLOW MODEL CONTAINS CONSTANT-HEAD CELLS


 MAXIMUM STEPSIZE DURING WHICH ANY PARTICLE CANNOT MOVE MORE THAN ONE CELL
 =  5.062    (WHEN MIN. R.F.=1)  AT K=   4, I=   1, J=  50

 MAXIMUM STEPSIZE WHICH MEETS STABILITY CRITERION OF THE ADVECTION TERM
 (FOR PURE FINITE-DIFFERENCE OPTION, MIXELM=0) 
 =  3.146    (WHEN MIN. R.F.=1)  AT K=   2, I=   1, J=  43


 TOTAL NUMBER OF POINT SOURCES/SINKS PRESENT IN THE FLOW MODEL =    62

 MAXIMUM STEPSIZE WHICH MEETS STABILITY CRITERION OF THE SINK & SOURCE TERM
 =  81.70    (WHEN MIN. R.F.=1)  AT K=   2, I=   1, J= 120

 MAXIMUM STEPSIZE WHICH MEETS STABILITY CRITERION OF THE DISPERSION TERM
 =  20.29    (WHEN MIN. R.F.=1)  AT K=   1, I=   1, J=  31
     1 CALLS TO GCG PACKAGE FOR TRANSPORT TIME STEP   3 IN FLOW TIME STEP 144 STRESS PERIOD   1
     6 TOTAL ITERATIONS
 
 SOLVING FOR HEAD 
 FLOW MODEL IS TRANSIENT
 FLOW MODEL CONTAINS CONSTANT-HEAD CELLS


 MAXIMUM STEPSIZE DURING WHICH ANY PARTICLE CANNOT MOVE MORE THAN ONE CELL
 =  4.982    (WHEN MIN. R.F.=1)  AT K=   4, I=   1, J=  50

 MAXIMUM STEPSIZE WHICH MEETS STABILITY CRITERION OF THE ADVECTION TERM
 (FOR PURE FINITE-DIFFERENCE OPTION, MIXELM=0) 
 =  3.224    (WHEN MIN. R.F.=1)  AT K=   2, I=   1, J=  76


 TOTAL NUMBER OF POINT SOURCES/SINKS PRESENT IN THE FLOW MODEL =    62

 MAXIMUM STEPSIZE WHICH MEETS STABILITY CRITERION OF THE SINK & SOURCE TERM
 =  82.66    (WHEN MIN. R.F.=1)  AT K=   2, I=   1, J= 120

 MAXIMUM STEPSIZE WHICH MEETS STABILITY CRITERION OF THE DISPERSION TERM
 =  20.29    (WHEN MIN. R.F.=1)  AT K=   1, I=   1, J=  31
     1 CALLS TO GCG PACKAGE FOR TRANSPORT TIME STEP   4 IN FLOW TIME STEP 144 STRESS PERIOD   1
     6 TOTAL ITERATIONS
 
 SOLVING FOR HEAD 
 FLOW MODEL IS TRANSIENT
 FLOW MODEL CONTAINS CONSTANT-HEAD CELLS


 MAXIMUM STEPSIZE DURING WHICH ANY PARTICLE CANNOT MOVE MORE THAN ONE CELL
 =  4.932    (WHEN MIN. R.F.=1)  AT K=   4, I=   1, J=  50

 MAXIMUM STEPSIZE WHICH MEETS STABILITY CRITERION OF THE ADVECTION TERM
 (FOR PURE FINITE-DIFFERENCE OPTION, MIXELM=0) 
 =  3.172    (WHEN MIN. R.F.=1)  AT K=   2, I=   1, J=  76


 TOTAL NUMBER OF POINT SOURCES/SINKS PRESENT IN THE FLOW MODEL =    62

 MAXIMUM STEPSIZE WHICH MEETS STABILITY CRITERION OF THE SINK & SOURCE TERM
 =  79.90    (WHEN MIN. R.F.=1)  AT K=   2, I=   1, J= 120

 MAXIMUM STEPSIZE WHICH MEETS STABILITY CRITERION OF THE DISPERSION TERM
 =  20.29    (WHEN MIN. R.F.=1)  AT K=   1, I=   1, J=  31
     1 CALLS TO GCG PACKAGE FOR TRANSPORT TIME STEP   5 IN FLOW TIME STEP 144 STRESS PERIOD   1
     4 TOTAL ITERATIONS
  MAXIMUM CONCENTRATION CHANGES FOR EACH ITERATION:
  MAX. CHANGE LAYER,ROW,COL MAX. CHANGE LAYER,ROW,COL MAX. CHANGE LAYER,ROW,COL MAX. CHANGE LAYER,ROW,COL MAX. CHANGE LAYER,ROW,COL
 ------------------------------------------------------------------------------------------------------------------------------------
   0.9227E-02 (  2,  1, 77)  0.1034E-03 (  2,  1, 77)  0.1301E-05 (  2,  1, 78)  0.1850E-07 (  3,  1, 78)


                                          ================================================
                                                         FROM TIME =   1440.0     TO    1450.0    

 
 SOLVING FOR HEAD 
 FLOW MODEL IS TRANSIENT
 FLOW MODEL CONTAINS CONSTANT-HEAD CELLS


 MAXIMUM STEPSIZE DURING WHICH ANY PARTICLE CANNOT MOVE MORE THAN ONE CELL
 =  4.923    (WHEN MIN. R.F.=1)  AT K=   4, I=   1, J=  50

 MAXIMUM STEPSIZE WHICH MEETS STABILITY CRITERION OF THE ADVECTION TERM
 (FOR PURE FINITE-DIFFERENCE OPTION, MIXELM=0) 
 =  3.181    (WHEN MIN. R.F.=1)  AT K=   2, I=   1, J=  76


 TOTAL NUMBER OF POINT SOURCES/SINKS PRESENT IN THE FLOW MODEL =    62

 MAXIMUM STEPSIZE WHICH MEETS STABILITY CRITERION OF THE SINK & SOURCE TERM
 =  86.64    (WHEN MIN. R.F.=1)  AT K=   2, I=   1, J= 120

 MAXIMUM STEPSIZE WHICH MEETS STABILITY CRITERION OF THE DISPERSION TERM
 =  20.29    (WHEN MIN. R.F.=1)  AT K=   1, I=   1, J=  31


     1 CALLS TO GCG PACKAGE FOR TRANSPORT TIME STEP   1 IN FLOW TIME STEP 145 STRESS PERIOD   1
     6 TOTAL ITERATIONS

 NO OUTPUT CONTROL FOR STRESS PERIOD    1   TIME STEP 145
 
 SOLVING FOR HEAD 
 FLOW MODEL IS TRANSIENT
 FLOW MODEL CONTAINS CONSTANT-HEAD CELLS


 MAXIMUM STEPSIZE DURING WHICH ANY PARTICLE CANNOT MOVE MORE THAN ONE CELL
 =  4.908    (WHEN MIN. R.F.=1)  AT K=   4, I=   1, J=  50

 MAXIMUM STEPSIZE WHICH MEETS STABILITY CRITERION OF THE ADVECTION TERM
 (FOR PURE FINITE-DIFFERENCE OPTION, MIXELM=0) 
 =  3.176    (WHEN MIN. R.F.=1)  AT K=   2, I=   1, J=  44


 TOTAL NUMBER OF POINT SOURCES/SINKS PRESENT IN THE FLOW MODEL =    62

 MAXIMUM STEPSIZE WHICH MEETS STABILITY CRITERION OF THE SINK & SOURCE TERM
 =  84.59    (WHEN MIN. R.F.=1)  AT K=   2, I=   1, J= 120

 MAXIMUM STEPSIZE WHICH MEETS STABILITY CRITERION OF THE DISPERSION TERM
 =  20.29    (WHEN MIN. R.F.=1)  AT K=   1, I=   1, J=  31
     1 CALLS TO GCG PACKAGE FOR TRANSPORT TIME STEP   2 IN FLOW TIME STEP 145 STRESS PERIOD   1
     6 TOTAL ITERATIONS
 
 SOLVING FOR HEAD 
 FLOW MODEL IS TRANSIENT
 FLOW MODEL CONTAINS CONSTANT-HEAD CELLS


 MAXIMUM STEPSIZE DURING WHICH ANY PARTICLE CANNOT MOVE MORE THAN ONE CELL
 =  4.915    (WHEN MIN. R.F.=1)  AT K=   4, I=   1, J=  50

 MAXIMUM STEPSIZE WHICH MEETS STABILITY CRITERION OF THE ADVECTION TERM
 (FOR PURE FINITE-DIFFERENCE OPTION, MIXELM=0) 
 =  3.172    (WHEN MIN. R.F.=1)  AT K=   2, I=   1, J=  44


 TOTAL NUMBER OF POINT SOURCES/SINKS PRESENT IN THE FLOW MODEL =    62

 MAXIMUM STEPSIZE WHICH MEETS STABILITY CRITERION OF THE SINK & SOURCE TERM
 =  85.09    (WHEN MIN. R.F.=1)  AT K=   2, I=   1, J= 120

 MAXIMUM STEPSIZE WHICH MEETS STABILITY CRITERION OF THE DISPERSION TERM
 =  20.29    (WHEN MIN. R.F.=1)  AT K=   1, I=   1, J=  31
     1 CALLS TO GCG PACKAGE FOR TRANSPORT TIME STEP   3 IN FLOW TIME STEP 145 STRESS PERIOD   1
     6 TOTAL ITERATIONS
 
 SOLVING FOR HEAD 
 FLOW MODEL IS TRANSIENT
 FLOW MODEL CONTAINS CONSTANT-HEAD CELLS


 MAXIMUM STEPSIZE DURING WHICH ANY PARTICLE CANNOT MOVE MORE THAN ONE CELL
 =  4.939    (WHEN MIN. R.F.=1)  AT K=   4, I=   1, J=  50

 MAXIMUM STEPSIZE WHICH MEETS STABILITY CRITERION OF THE ADVECTION TERM
 (FOR PURE FINITE-DIFFERENCE OPTION, MIXELM=0) 
 =  3.271    (WHEN MIN. R.F.=1)  AT K=   2, I=   1, J=  44


 TOTAL NUMBER OF POINT SOURCES/SINKS PRESENT IN THE FLOW MODEL =    62

 MAXIMUM STEPSIZE WHICH MEETS STABILITY CRITERION OF THE SINK & SOURCE TERM
 =  85.67    (WHEN MIN. R.F.=1)  AT K=   2, I=   1, J= 120

 MAXIMUM STEPSIZE WHICH MEETS STABILITY CRITERION OF THE DISPERSION TERM
 =  20.29    (WHEN MIN. R.F.=1)  AT K=   1, I=   1, J=  31
     1 CALLS TO GCG PACKAGE FOR TRANSPORT TIME STEP   4 IN FLOW TIME STEP 145 STRESS PERIOD   1
     6 TOTAL ITERATIONS
 
 SOLVING FOR HEAD 
 FLOW MODEL IS TRANSIENT
 FLOW MODEL CONTAINS CONSTANT-HEAD CELLS


 MAXIMUM STEPSIZE DURING WHICH ANY PARTICLE CANNOT MOVE MORE THAN ONE CELL
 =  4.979    (WHEN MIN. R.F.=1)  AT K=   4, I=   1, J=  50

 MAXIMUM STEPSIZE WHICH MEETS STABILITY CRITERION OF THE ADVECTION TERM
 (FOR PURE FINITE-DIFFERENCE OPTION, MIXELM=0) 
 =  3.528    (WHEN MIN. R.F.=1)  AT K=   2, I=   1, J=  75


 TOTAL NUMBER OF POINT SOURCES/SINKS PRESENT IN THE FLOW MODEL =    62

 MAXIMUM STEPSIZE WHICH MEETS STABILITY CRITERION OF THE SINK & SOURCE TERM
 =  81.90    (WHEN MIN. R.F.=1)  AT K=   2, I=   1, J= 120

 MAXIMUM STEPSIZE WHICH MEETS STABILITY CRITERION OF THE DISPERSION TERM
 =  20.29    (WHEN MIN. R.F.=1)  AT K=   1, I=   1, J=  31
     1 CALLS TO GCG PACKAGE FOR TRANSPORT TIME STEP   5 IN FLOW TIME STEP 145 STRESS PERIOD   1
     4 TOTAL ITERATIONS
  MAXIMUM CONCENTRATION CHANGES FOR EACH ITERATION:
  MAX. CHANGE LAYER,ROW,COL MAX. CHANGE LAYER,ROW,COL MAX. CHANGE LAYER,ROW,COL MAX. CHANGE LAYER,ROW,COL MAX. CHANGE LAYER,ROW,COL
 ------------------------------------------------------------------------------------------------------------------------------------
   0.7110E-02 (  2,  1, 84)  0.6165E-04 (  2,  1, 75)  0.5800E-06 (  3,  1, 75)  0.4645E-08 (  3,  1, 76)


                                          ================================================
                                                         FROM TIME =   1450.0     TO    1460.0    

 
 SOLVING FOR HEAD 
 FLOW MODEL IS TRANSIENT
 FLOW MODEL CONTAINS CONSTANT-HEAD CELLS


 MAXIMUM STEPSIZE DURING WHICH ANY PARTICLE CANNOT MOVE MORE THAN ONE CELL
 =  4.990    (WHEN MIN. R.F.=1)  AT K=   4, I=   1, J=  50

 MAXIMUM STEPSIZE WHICH MEETS STABILITY CRITERION OF THE ADVECTION TERM
 (FOR PURE FINITE-DIFFERENCE OPTION, MIXELM=0) 
 =  3.501    (WHEN MIN. R.F.=1)  AT K=   2, I=   1, J=  75


 TOTAL NUMBER OF POINT SOURCES/SINKS PRESENT IN THE FLOW MODEL =    62

 MAXIMUM STEPSIZE WHICH MEETS STABILITY CRITERION OF THE SINK & SOURCE TERM
 =  89.05    (WHEN MIN. R.F.=1)  AT K=   2, I=   1, J= 120

 MAXIMUM STEPSIZE WHICH MEETS STABILITY CRITERION OF THE DISPERSION TERM
 =  20.29    (WHEN MIN. R.F.=1)  AT K=   1, I=   1, J=  31


     1 CALLS TO GCG PACKAGE FOR TRANSPORT TIME STEP   1 IN FLOW TIME STEP 146 STRESS PERIOD   1
     6 TOTAL ITERATIONS

 NO OUTPUT CONTROL FOR STRESS PERIOD    1   TIME STEP 146
 
 SOLVING FOR HEAD 
 FLOW MODEL IS TRANSIENT
 FLOW MODEL CONTAINS CONSTANT-HEAD CELLS


 MAXIMUM STEPSIZE DURING WHICH ANY PARTICLE CANNOT MOVE MORE THAN ONE CELL
 =  5.051    (WHEN MIN. R.F.=1)  AT K=   4, I=   1, J=  50

 MAXIMUM STEPSIZE WHICH MEETS STABILITY CRITERION OF THE ADVECTION TERM
 (FOR PURE FINITE-DIFFERENCE OPTION, MIXELM=0) 
 =  3.369    (WHEN MIN. R.F.=1)  AT K=   2, I=   1, J=  45


 TOTAL NUMBER OF POINT SOURCES/SINKS PRESENT IN THE FLOW MODEL =    62

 MAXIMUM STEPSIZE WHICH MEETS STABILITY CRITERION OF THE SINK & SOURCE TERM
 =  86.48    (WHEN MIN. R.F.=1)  AT K=   2, I=   1, J= 120

 MAXIMUM STEPSIZE WHICH MEETS STABILITY CRITERION OF THE DISPERSION TERM
 =  20.29    (WHEN MIN. R.F.=1)  AT K=   1, I=   1, J=  31
     1 CALLS TO GCG PACKAGE FOR TRANSPORT TIME STEP   2 IN FLOW TIME STEP 146 STRESS PERIOD   1
     6 TOTAL ITERATIONS
 
 SOLVING FOR HEAD 
 FLOW MODEL IS TRANSIENT
 FLOW MODEL CONTAINS CONSTANT-HEAD CELLS


 MAXIMUM STEPSIZE DURING WHICH ANY PARTICLE CANNOT MOVE MORE THAN ONE CELL
 =  5.121    (WHEN MIN. R.F.=1)  AT K=   4, I=   1, J=  50

 MAXIMUM STEPSIZE WHICH MEETS STABILITY CRITERION OF THE ADVECTION TERM
 (FOR PURE FINITE-DIFFERENCE OPTION, MIXELM=0) 
 =  3.270    (WHEN MIN. R.F.=1)  AT K=   2, I=   1, J=  45


 TOTAL NUMBER OF POINT SOURCES/SINKS PRESENT IN THE FLOW MODEL =    62

 MAXIMUM STEPSIZE WHICH MEETS STABILITY CRITERION OF THE SINK & SOURCE TERM
 =  86.72    (WHEN MIN. R.F.=1)  AT K=   2, I=   1, J= 120

 MAXIMUM STEPSIZE WHICH MEETS STABILITY CRITERION OF THE DISPERSION TERM
 =  20.29    (WHEN MIN. R.F.=1)  AT K=   1, I=   1, J=  31
     1 CALLS TO GCG PACKAGE FOR TRANSPORT TIME STEP   3 IN FLOW TIME STEP 146 STRESS PERIOD   1
     6 TOTAL ITERATIONS
 
 SOLVING FOR HEAD 
 FLOW MODEL IS TRANSIENT
 FLOW MODEL CONTAINS CONSTANT-HEAD CELLS


 MAXIMUM STEPSIZE DURING WHICH ANY PARTICLE CANNOT MOVE MORE THAN ONE CELL
 =  5.185    (WHEN MIN. R.F.=1)  AT K=   5, I=   1, J=  50

 MAXIMUM STEPSIZE WHICH MEETS STABILITY CRITERION OF THE ADVECTION TERM
 (FOR PURE FINITE-DIFFERENCE OPTION, MIXELM=0) 
 =  3.314    (WHEN MIN. R.F.=1)  AT K=   2, I=   1, J=  45


 TOTAL NUMBER OF POINT SOURCES/SINKS PRESENT IN THE FLOW MODEL =    62

 MAXIMUM STEPSIZE WHICH MEETS STABILITY CRITERION OF THE SINK & SOURCE TERM
 =  86.90    (WHEN MIN. R.F.=1)  AT K=   2, I=   1, J= 120

 MAXIMUM STEPSIZE WHICH MEETS STABILITY CRITERION OF THE DISPERSION TERM
 =  20.29    (WHEN MIN. R.F.=1)  AT K=   1, I=   1, J=  31
     1 CALLS TO GCG PACKAGE FOR TRANSPORT TIME STEP   4 IN FLOW TIME STEP 146 STRESS PERIOD   1
     5 TOTAL ITERATIONS
  MAXIMUM CONCENTRATION CHANGES FOR EACH ITERATION:
  MAX. CHANGE LAYER,ROW,COL MAX. CHANGE LAYER,ROW,COL MAX. CHANGE LAYER,ROW,COL MAX. CHANGE LAYER,ROW,COL MAX. CHANGE LAYER,ROW,COL
 ------------------------------------------------------------------------------------------------------------------------------------
   0.3586E-01 (  2,  1, 83)  0.9913E-03 (  2,  1, 83)  0.4367E-04 (  2,  1, 84)  0.2119E-05 (  3,  1, 84)  0.9590E-07 (  4,  1, 73)


                                          ================================================
                                                         FROM TIME =   1460.0     TO    1470.0    

 
 SOLVING FOR HEAD 
 FLOW MODEL IS TRANSIENT
 FLOW MODEL CONTAINS CONSTANT-HEAD CELLS


 MAXIMUM STEPSIZE DURING WHICH ANY PARTICLE CANNOT MOVE MORE THAN ONE CELL
 =  5.244    (WHEN MIN. R.F.=1)  AT K=   5, I=   1, J=  50

 MAXIMUM STEPSIZE WHICH MEETS STABILITY CRITERION OF THE ADVECTION TERM
 (FOR PURE FINITE-DIFFERENCE OPTION, MIXELM=0) 
 =  3.452    (WHEN MIN. R.F.=1)  AT K=   2, I=   1, J=  45


 TOTAL NUMBER OF POINT SOURCES/SINKS PRESENT IN THE FLOW MODEL =    62

 MAXIMUM STEPSIZE WHICH MEETS STABILITY CRITERION OF THE SINK & SOURCE TERM
 =  86.53    (WHEN MIN. R.F.=1)  AT K=   2, I=   1, J= 120

 MAXIMUM STEPSIZE WHICH MEETS STABILITY CRITERION OF THE DISPERSION TERM
 =  20.29    (WHEN MIN. R.F.=1)  AT K=   1, I=   1, J=  31


     1 CALLS TO GCG PACKAGE FOR TRANSPORT TIME STEP   1 IN FLOW TIME STEP 147 STRESS PERIOD   1
     6 TOTAL ITERATIONS

 NO OUTPUT CONTROL FOR STRESS PERIOD    1   TIME STEP 147
 
 SOLVING FOR HEAD 
 FLOW MODEL IS TRANSIENT
 FLOW MODEL CONTAINS CONSTANT-HEAD CELLS


 MAXIMUM STEPSIZE DURING WHICH ANY PARTICLE CANNOT MOVE MORE THAN ONE CELL
 =  5.318    (WHEN MIN. R.F.=1)  AT K=   5, I=   1, J=  50

 MAXIMUM STEPSIZE WHICH MEETS STABILITY CRITERION OF THE ADVECTION TERM
 (FOR PURE FINITE-DIFFERENCE OPTION, MIXELM=0) 
 =  3.542    (WHEN MIN. R.F.=1)  AT K=   2, I=   1, J=  81


 TOTAL NUMBER OF POINT SOURCES/SINKS PRESENT IN THE FLOW MODEL =    62

 MAXIMUM STEPSIZE WHICH MEETS STABILITY CRITERION OF THE SINK & SOURCE TERM
 =  84.85    (WHEN MIN. R.F.=1)  AT K=   2, I=   1, J= 120

 MAXIMUM STEPSIZE WHICH MEETS STABILITY CRITERION OF THE DISPERSION TERM
 =  20.29    (WHEN MIN. R.F.=1)  AT K=   1, I=   1, J=  31
     1 CALLS TO GCG PACKAGE FOR TRANSPORT TIME STEP   2 IN FLOW TIME STEP 147 STRESS PERIOD   1
     6 TOTAL ITERATIONS
 
 SOLVING FOR HEAD 
 FLOW MODEL IS TRANSIENT
 FLOW MODEL CONTAINS CONSTANT-HEAD CELLS


 MAXIMUM STEPSIZE DURING WHICH ANY PARTICLE CANNOT MOVE MORE THAN ONE CELL
 =  5.400    (WHEN MIN. R.F.=1)  AT K=   5, I=   1, J=  50

 MAXIMUM STEPSIZE WHICH MEETS STABILITY CRITERION OF THE ADVECTION TERM
 (FOR PURE FINITE-DIFFERENCE OPTION, MIXELM=0) 
 =  3.262    (WHEN MIN. R.F.=1)  AT K=   2, I=   1, J=  81


 TOTAL NUMBER OF POINT SOURCES/SINKS PRESENT IN THE FLOW MODEL =    62

 MAXIMUM STEPSIZE WHICH MEETS STABILITY CRITERION OF THE SINK & SOURCE TERM
 =  84.48    (WHEN MIN. R.F.=1)  AT K=   2, I=   1, J= 120

 MAXIMUM STEPSIZE WHICH MEETS STABILITY CRITERION OF THE DISPERSION TERM
 =  20.29    (WHEN MIN. R.F.=1)  AT K=   1, I=   1, J=  31
     1 CALLS TO GCG PACKAGE FOR TRANSPORT TIME STEP   3 IN FLOW TIME STEP 147 STRESS PERIOD   1
     6 TOTAL ITERATIONS
 
 SOLVING FOR HEAD 
 FLOW MODEL IS TRANSIENT
 FLOW MODEL CONTAINS CONSTANT-HEAD CELLS


 MAXIMUM STEPSIZE DURING WHICH ANY PARTICLE CANNOT MOVE MORE THAN ONE CELL
 =  5.492    (WHEN MIN. R.F.=1)  AT K=   5, I=   1, J=  50

 MAXIMUM STEPSIZE WHICH MEETS STABILITY CRITERION OF THE ADVECTION TERM
 (FOR PURE FINITE-DIFFERENCE OPTION, MIXELM=0) 
 =  3.169    (WHEN MIN. R.F.=1)  AT K=   2, I=   1, J=  81


 TOTAL NUMBER OF POINT SOURCES/SINKS PRESENT IN THE FLOW MODEL =    62

 MAXIMUM STEPSIZE WHICH MEETS STABILITY CRITERION OF THE SINK & SOURCE TERM
 =  84.91    (WHEN MIN. R.F.=1)  AT K=   2, I=   1, J= 120

 MAXIMUM STEPSIZE WHICH MEETS STABILITY CRITERION OF THE DISPERSION TERM
 =  20.29    (WHEN MIN. R.F.=1)  AT K=   1, I=   1, J=  31
     1 CALLS TO GCG PACKAGE FOR TRANSPORT TIME STEP   4 IN FLOW TIME STEP 147 STRESS PERIOD   1
     6 TOTAL ITERATIONS
  MAXIMUM CONCENTRATION CHANGES FOR EACH ITERATION:
  MAX. CHANGE LAYER,ROW,COL MAX. CHANGE LAYER,ROW,COL MAX. CHANGE LAYER,ROW,COL MAX. CHANGE LAYER,ROW,COL MAX. CHANGE LAYER,ROW,COL
 ------------------------------------------------------------------------------------------------------------------------------------
   0.3831E-01 (  2,  1, 82)  0.1075E-02 (  2,  1, 82)  0.5799E-04 (  3,  1, 80)  0.2332E-05 (  4,  1, 76)  0.1760E-06 (  3,  1, 77)
   0.8413E-08 (  4,  1, 77)


                                          ================================================
                                                         FROM TIME =   1470.0     TO    1480.0    

 
 SOLVING FOR HEAD 
 FLOW MODEL IS TRANSIENT
 FLOW MODEL CONTAINS CONSTANT-HEAD CELLS


 MAXIMUM STEPSIZE DURING WHICH ANY PARTICLE CANNOT MOVE MORE THAN ONE CELL
 =  5.577    (WHEN MIN. R.F.=1)  AT K=   5, I=   1, J=  50

 MAXIMUM STEPSIZE WHICH MEETS STABILITY CRITERION OF THE ADVECTION TERM
 (FOR PURE FINITE-DIFFERENCE OPTION, MIXELM=0) 
 =  3.280    (WHEN MIN. R.F.=1)  AT K=   2, I=   1, J=  81


 TOTAL NUMBER OF POINT SOURCES/SINKS PRESENT IN THE FLOW MODEL =    62

 MAXIMUM STEPSIZE WHICH MEETS STABILITY CRITERION OF THE SINK & SOURCE TERM
 =  85.55    (WHEN MIN. R.F.=1)  AT K=   2, I=   1, J= 120

 MAXIMUM STEPSIZE WHICH MEETS STABILITY CRITERION OF THE DISPERSION TERM
 =  20.29    (WHEN MIN. R.F.=1)  AT K=   1, I=   1, J=  31


     1 CALLS TO GCG PACKAGE FOR TRANSPORT TIME STEP   1 IN FLOW TIME STEP 148 STRESS PERIOD   1
     6 TOTAL ITERATIONS

 NO OUTPUT CONTROL FOR STRESS PERIOD    1   TIME STEP 148
 
 SOLVING FOR HEAD 
 FLOW MODEL IS TRANSIENT
 FLOW MODEL CONTAINS CONSTANT-HEAD CELLS


 MAXIMUM STEPSIZE DURING WHICH ANY PARTICLE CANNOT MOVE MORE THAN ONE CELL
 =  5.668    (WHEN MIN. R.F.=1)  AT K=   5, I=   1, J=  50

 MAXIMUM STEPSIZE WHICH MEETS STABILITY CRITERION OF THE ADVECTION TERM
 (FOR PURE FINITE-DIFFERENCE OPTION, MIXELM=0) 
 =  3.194    (WHEN MIN. R.F.=1)  AT K=   2, I=   1, J=  80


 TOTAL NUMBER OF POINT SOURCES/SINKS PRESENT IN THE FLOW MODEL =    62

 MAXIMUM STEPSIZE WHICH MEETS STABILITY CRITERION OF THE SINK & SOURCE TERM
 =  84.50    (WHEN MIN. R.F.=1)  AT K=   2, I=   1, J= 120

 MAXIMUM STEPSIZE WHICH MEETS STABILITY CRITERION OF THE DISPERSION TERM
 =  20.29    (WHEN MIN. R.F.=1)  AT K=   1, I=   1, J=  31
     1 CALLS TO GCG PACKAGE FOR TRANSPORT TIME STEP   2 IN FLOW TIME STEP 148 STRESS PERIOD   1
     6 TOTAL ITERATIONS
 
 SOLVING FOR HEAD 
 FLOW MODEL IS TRANSIENT
 FLOW MODEL CONTAINS CONSTANT-HEAD CELLS


 MAXIMUM STEPSIZE DURING WHICH ANY PARTICLE CANNOT MOVE MORE THAN ONE CELL
 =  5.765    (WHEN MIN. R.F.=1)  AT K=   5, I=   1, J=  50

 MAXIMUM STEPSIZE WHICH MEETS STABILITY CRITERION OF THE ADVECTION TERM
 (FOR PURE FINITE-DIFFERENCE OPTION, MIXELM=0) 
 =  2.966    (WHEN MIN. R.F.=1)  AT K=   2, I=   1, J=  80


 TOTAL NUMBER OF POINT SOURCES/SINKS PRESENT IN THE FLOW MODEL =    62

 MAXIMUM STEPSIZE WHICH MEETS STABILITY CRITERION OF THE SINK & SOURCE TERM
 =  83.42    (WHEN MIN. R.F.=1)  AT K=   2, I=   1, J= 120

 MAXIMUM STEPSIZE WHICH MEETS STABILITY CRITERION OF THE DISPERSION TERM
 =  20.29    (WHEN MIN. R.F.=1)  AT K=   1, I=   1, J=  31
     1 CALLS TO GCG PACKAGE FOR TRANSPORT TIME STEP   3 IN FLOW TIME STEP 148 STRESS PERIOD   1
     6 TOTAL ITERATIONS
 
 SOLVING FOR HEAD 
 FLOW MODEL IS TRANSIENT
 FLOW MODEL CONTAINS CONSTANT-HEAD CELLS


 MAXIMUM STEPSIZE DURING WHICH ANY PARTICLE CANNOT MOVE MORE THAN ONE CELL
 =  5.685    (WHEN MIN. R.F.=1)  AT K=   2, I=   1, J=  81

 MAXIMUM STEPSIZE WHICH MEETS STABILITY CRITERION OF THE ADVECTION TERM
 (FOR PURE FINITE-DIFFERENCE OPTION, MIXELM=0) 
 =  2.931    (WHEN MIN. R.F.=1)  AT K=   2, I=   1, J=  80


 TOTAL NUMBER OF POINT SOURCES/SINKS PRESENT IN THE FLOW MODEL =    62

 MAXIMUM STEPSIZE WHICH MEETS STABILITY CRITERION OF THE SINK & SOURCE TERM
 =  83.40    (WHEN MIN. R.F.=1)  AT K=   2, I=   1, J= 120

 MAXIMUM STEPSIZE WHICH MEETS STABILITY CRITERION OF THE DISPERSION TERM
 =  20.29    (WHEN MIN. R.F.=1)  AT K=   1, I=   1, J=  31
     1 CALLS TO GCG PACKAGE FOR TRANSPORT TIME STEP   4 IN FLOW TIME STEP 148 STRESS PERIOD   1
     6 TOTAL ITERATIONS
 
 SOLVING FOR HEAD 
 FLOW MODEL IS TRANSIENT
 FLOW MODEL CONTAINS CONSTANT-HEAD CELLS


 MAXIMUM STEPSIZE DURING WHICH ANY PARTICLE CANNOT MOVE MORE THAN ONE CELL
 =  5.574    (WHEN MIN. R.F.=1)  AT K=   2, I=   1, J=  81

 MAXIMUM STEPSIZE WHICH MEETS STABILITY CRITERION OF THE ADVECTION TERM
 (FOR PURE FINITE-DIFFERENCE OPTION, MIXELM=0) 
 =  3.052    (WHEN MIN. R.F.=1)  AT K=   2, I=   1, J=  80


 TOTAL NUMBER OF POINT SOURCES/SINKS PRESENT IN THE FLOW MODEL =    62

 MAXIMUM STEPSIZE WHICH MEETS STABILITY CRITERION OF THE SINK & SOURCE TERM
 =  80.49    (WHEN MIN. R.F.=1)  AT K=   2, I=   1, J= 120

 MAXIMUM STEPSIZE WHICH MEETS STABILITY CRITERION OF THE DISPERSION TERM
 =  20.29    (WHEN MIN. R.F.=1)  AT K=   1, I=   1, J=  31
     1 CALLS TO GCG PACKAGE FOR TRANSPORT TIME STEP   5 IN FLOW TIME STEP 148 STRESS PERIOD   1
     4 TOTAL ITERATIONS
  MAXIMUM CONCENTRATION CHANGES FOR EACH ITERATION:
  MAX. CHANGE LAYER,ROW,COL MAX. CHANGE LAYER,ROW,COL MAX. CHANGE LAYER,ROW,COL MAX. CHANGE LAYER,ROW,COL MAX. CHANGE LAYER,ROW,COL
 ------------------------------------------------------------------------------------------------------------------------------------
   0.8881E-02 (  2,  1, 81)  0.6144E-04 (  2,  1, 81)  0.1044E-05 (  3,  1, 79)  0.1137E-07 (  3,  1, 82)


                                          ================================================
                                                         FROM TIME =   1480.0     TO    1490.0    

 
 SOLVING FOR HEAD 
 FLOW MODEL IS TRANSIENT
 FLOW MODEL CONTAINS CONSTANT-HEAD CELLS


 MAXIMUM STEPSIZE DURING WHICH ANY PARTICLE CANNOT MOVE MORE THAN ONE CELL
 =  5.560    (WHEN MIN. R.F.=1)  AT K=   2, I=   1, J=  81

 MAXIMUM STEPSIZE WHICH MEETS STABILITY CRITERION OF THE ADVECTION TERM
 (FOR PURE FINITE-DIFFERENCE OPTION, MIXELM=0) 
 =  3.111    (WHEN MIN. R.F.=1)  AT K=   2, I=   1, J=  80


 TOTAL NUMBER OF POINT SOURCES/SINKS PRESENT IN THE FLOW MODEL =    62

 MAXIMUM STEPSIZE WHICH MEETS STABILITY CRITERION OF THE SINK & SOURCE TERM
 =  86.47    (WHEN MIN. R.F.=1)  AT K=   2, I=   1, J= 120

 MAXIMUM STEPSIZE WHICH MEETS STABILITY CRITERION OF THE DISPERSION TERM
 =  20.29    (WHEN MIN. R.F.=1)  AT K=   1, I=   1, J=  31


     1 CALLS TO GCG PACKAGE FOR TRANSPORT TIME STEP   1 IN FLOW TIME STEP 149 STRESS PERIOD   1
     6 TOTAL ITERATIONS

 NO OUTPUT CONTROL FOR STRESS PERIOD    1   TIME STEP 149
 
 SOLVING FOR HEAD 
 FLOW MODEL IS TRANSIENT
 FLOW MODEL CONTAINS CONSTANT-HEAD CELLS


 MAXIMUM STEPSIZE DURING WHICH ANY PARTICLE CANNOT MOVE MORE THAN ONE CELL
 =  5.550    (WHEN MIN. R.F.=1)  AT K=   4, I=   1, J=  72

 MAXIMUM STEPSIZE WHICH MEETS STABILITY CRITERION OF THE ADVECTION TERM
 (FOR PURE FINITE-DIFFERENCE OPTION, MIXELM=0) 
 =  3.231    (WHEN MIN. R.F.=1)  AT K=   2, I=   1, J=  79


 TOTAL NUMBER OF POINT SOURCES/SINKS PRESENT IN THE FLOW MODEL =    62

 MAXIMUM STEPSIZE WHICH MEETS STABILITY CRITERION OF THE SINK & SOURCE TERM
 =  83.02    (WHEN MIN. R.F.=1)  AT K=   2, I=   1, J= 120

 MAXIMUM STEPSIZE WHICH MEETS STABILITY CRITERION OF THE DISPERSION TERM
 =  20.29    (WHEN MIN. R.F.=1)  AT K=   1, I=   1, J=  31
     1 CALLS TO GCG PACKAGE FOR TRANSPORT TIME STEP   2 IN FLOW TIME STEP 149 STRESS PERIOD   1
     6 TOTAL ITERATIONS
 
 SOLVING FOR HEAD 
 FLOW MODEL IS TRANSIENT
 FLOW MODEL CONTAINS CONSTANT-HEAD CELLS


 MAXIMUM STEPSIZE DURING WHICH ANY PARTICLE CANNOT MOVE MORE THAN ONE CELL
 =  5.359    (WHEN MIN. R.F.=1)  AT K=   4, I=   1, J=  72

 MAXIMUM STEPSIZE WHICH MEETS STABILITY CRITERION OF THE ADVECTION TERM
 (FOR PURE FINITE-DIFFERENCE OPTION, MIXELM=0) 
 =  3.023    (WHEN MIN. R.F.=1)  AT K=   2, I=   1, J=  79


 TOTAL NUMBER OF POINT SOURCES/SINKS PRESENT IN THE FLOW MODEL =    62

 MAXIMUM STEPSIZE WHICH MEETS STABILITY CRITERION OF THE SINK & SOURCE TERM
 =  83.69    (WHEN MIN. R.F.=1)  AT K=   2, I=   1, J= 120

 MAXIMUM STEPSIZE WHICH MEETS STABILITY CRITERION OF THE DISPERSION TERM
 =  20.29    (WHEN MIN. R.F.=1)  AT K=   1, I=   1, J=  31
     1 CALLS TO GCG PACKAGE FOR TRANSPORT TIME STEP   3 IN FLOW TIME STEP 149 STRESS PERIOD   1
     6 TOTAL ITERATIONS
 
 SOLVING FOR HEAD 
 FLOW MODEL IS TRANSIENT
 FLOW MODEL CONTAINS CONSTANT-HEAD CELLS


 MAXIMUM STEPSIZE DURING WHICH ANY PARTICLE CANNOT MOVE MORE THAN ONE CELL
 =  5.195    (WHEN MIN. R.F.=1)  AT K=   4, I=   1, J=  72

 MAXIMUM STEPSIZE WHICH MEETS STABILITY CRITERION OF THE ADVECTION TERM
 (FOR PURE FINITE-DIFFERENCE OPTION, MIXELM=0) 
 =  2.948    (WHEN MIN. R.F.=1)  AT K=   2, I=   1, J=  79


 TOTAL NUMBER OF POINT SOURCES/SINKS PRESENT IN THE FLOW MODEL =    62

 MAXIMUM STEPSIZE WHICH MEETS STABILITY CRITERION OF THE SINK & SOURCE TERM
 =  85.28    (WHEN MIN. R.F.=1)  AT K=   2, I=   1, J= 120

 MAXIMUM STEPSIZE WHICH MEETS STABILITY CRITERION OF THE DISPERSION TERM
 =  20.29    (WHEN MIN. R.F.=1)  AT K=   1, I=   1, J=  31
     1 CALLS TO GCG PACKAGE FOR TRANSPORT TIME STEP   4 IN FLOW TIME STEP 149 STRESS PERIOD   1
     6 TOTAL ITERATIONS
 
 SOLVING FOR HEAD 
 FLOW MODEL IS TRANSIENT
 FLOW MODEL CONTAINS CONSTANT-HEAD CELLS


 MAXIMUM STEPSIZE DURING WHICH ANY PARTICLE CANNOT MOVE MORE THAN ONE CELL
 =  5.079    (WHEN MIN. R.F.=1)  AT K=   4, I=   1, J=  72

 MAXIMUM STEPSIZE WHICH MEETS STABILITY CRITERION OF THE ADVECTION TERM
 (FOR PURE FINITE-DIFFERENCE OPTION, MIXELM=0) 
 =  2.998    (WHEN MIN. R.F.=1)  AT K=   2, I=   1, J=  79


 TOTAL NUMBER OF POINT SOURCES/SINKS PRESENT IN THE FLOW MODEL =    62

 MAXIMUM STEPSIZE WHICH MEETS STABILITY CRITERION OF THE SINK & SOURCE TERM
 =  83.12    (WHEN MIN. R.F.=1)  AT K=   2, I=   1, J= 120

 MAXIMUM STEPSIZE WHICH MEETS STABILITY CRITERION OF THE DISPERSION TERM
 =  20.29    (WHEN MIN. R.F.=1)  AT K=   1, I=   1, J=  31
     1 CALLS TO GCG PACKAGE FOR TRANSPORT TIME STEP   5 IN FLOW TIME STEP 149 STRESS PERIOD   1
     4 TOTAL ITERATIONS
  MAXIMUM CONCENTRATION CHANGES FOR EACH ITERATION:
  MAX. CHANGE LAYER,ROW,COL MAX. CHANGE LAYER,ROW,COL MAX. CHANGE LAYER,ROW,COL MAX. CHANGE LAYER,ROW,COL MAX. CHANGE LAYER,ROW,COL
 ------------------------------------------------------------------------------------------------------------------------------------
   0.1131E-01 (  2,  1, 80)  0.1156E-03 (  2,  1, 80)  0.2017E-05 (  3,  1, 78)  0.2795E-07 (  4,  1, 78)


                                          ================================================
                                                         FROM TIME =   1490.0     TO    1500.0    

 
 SOLVING FOR HEAD 
 FLOW MODEL IS TRANSIENT
 FLOW MODEL CONTAINS CONSTANT-HEAD CELLS


 MAXIMUM STEPSIZE DURING WHICH ANY PARTICLE CANNOT MOVE MORE THAN ONE CELL
 =  5.048    (WHEN MIN. R.F.=1)  AT K=   4, I=   1, J=  72

 MAXIMUM STEPSIZE WHICH MEETS STABILITY CRITERION OF THE ADVECTION TERM
 (FOR PURE FINITE-DIFFERENCE OPTION, MIXELM=0) 
 =  3.050    (WHEN MIN. R.F.=1)  AT K=   2, I=   1, J=  79


 TOTAL NUMBER OF POINT SOURCES/SINKS PRESENT IN THE FLOW MODEL =    62

 MAXIMUM STEPSIZE WHICH MEETS STABILITY CRITERION OF THE SINK & SOURCE TERM
 =  89.53    (WHEN MIN. R.F.=1)  AT K=   2, I=   1, J= 120

 MAXIMUM STEPSIZE WHICH MEETS STABILITY CRITERION OF THE DISPERSION TERM
 =  20.29    (WHEN MIN. R.F.=1)  AT K=   1, I=   1, J=  31


     1 CALLS TO GCG PACKAGE FOR TRANSPORT TIME STEP   1 IN FLOW TIME STEP 150 STRESS PERIOD   1
     6 TOTAL ITERATIONS

 NO OUTPUT CONTROL FOR STRESS PERIOD    1   TIME STEP 150
 
 SOLVING FOR HEAD 
 FLOW MODEL IS TRANSIENT
 FLOW MODEL CONTAINS CONSTANT-HEAD CELLS


 MAXIMUM STEPSIZE DURING WHICH ANY PARTICLE CANNOT MOVE MORE THAN ONE CELL
 =  4.969    (WHEN MIN. R.F.=1)  AT K=   4, I=   1, J=  72

 MAXIMUM STEPSIZE WHICH MEETS STABILITY CRITERION OF THE ADVECTION TERM
 (FOR PURE FINITE-DIFFERENCE OPTION, MIXELM=0) 
 =  3.270    (WHEN MIN. R.F.=1)  AT K=   2, I=   1, J=  41


 TOTAL NUMBER OF POINT SOURCES/SINKS PRESENT IN THE FLOW MODEL =    62

 MAXIMUM STEPSIZE WHICH MEETS STABILITY CRITERION OF THE SINK & SOURCE TERM
 =  85.77    (WHEN MIN. R.F.=1)  AT K=   2, I=   1, J= 120

 MAXIMUM STEPSIZE WHICH MEETS STABILITY CRITERION OF THE DISPERSION TERM
 =  20.29    (WHEN MIN. R.F.=1)  AT K=   1, I=   1, J=  31
     1 CALLS TO GCG PACKAGE FOR TRANSPORT TIME STEP   2 IN FLOW TIME STEP 150 STRESS PERIOD   1
     6 TOTAL ITERATIONS
 
 SOLVING FOR HEAD 
 FLOW MODEL IS TRANSIENT
 FLOW MODEL CONTAINS CONSTANT-HEAD CELLS


 MAXIMUM STEPSIZE DURING WHICH ANY PARTICLE CANNOT MOVE MORE THAN ONE CELL
 =  4.911    (WHEN MIN. R.F.=1)  AT K=   4, I=   1, J=  72

 MAXIMUM STEPSIZE WHICH MEETS STABILITY CRITERION OF THE ADVECTION TERM
 (FOR PURE FINITE-DIFFERENCE OPTION, MIXELM=0) 
 =  3.132    (WHEN MIN. R.F.=1)  AT K=   2, I=   1, J=  41


 TOTAL NUMBER OF POINT SOURCES/SINKS PRESENT IN THE FLOW MODEL =    62

 MAXIMUM STEPSIZE WHICH MEETS STABILITY CRITERION OF THE SINK & SOURCE TERM
 =  85.89    (WHEN MIN. R.F.=1)  AT K=   2, I=   1, J= 120

 MAXIMUM STEPSIZE WHICH MEETS STABILITY CRITERION OF THE DISPERSION TERM
 =  20.29    (WHEN MIN. R.F.=1)  AT K=   1, I=   1, J=  31
     1 CALLS TO GCG PACKAGE FOR TRANSPORT TIME STEP   3 IN FLOW TIME STEP 150 STRESS PERIOD   1
     6 TOTAL ITERATIONS
 
 SOLVING FOR HEAD 
 FLOW MODEL IS TRANSIENT
 FLOW MODEL CONTAINS CONSTANT-HEAD CELLS


 MAXIMUM STEPSIZE DURING WHICH ANY PARTICLE CANNOT MOVE MORE THAN ONE CELL
 =  4.868    (WHEN MIN. R.F.=1)  AT K=   4, I=   1, J=  72

 MAXIMUM STEPSIZE WHICH MEETS STABILITY CRITERION OF THE ADVECTION TERM
 (FOR PURE FINITE-DIFFERENCE OPTION, MIXELM=0) 
 =  3.067    (WHEN MIN. R.F.=1)  AT K=   2, I=   1, J=  78


 TOTAL NUMBER OF POINT SOURCES/SINKS PRESENT IN THE FLOW MODEL =    62

 MAXIMUM STEPSIZE WHICH MEETS STABILITY CRITERION OF THE SINK & SOURCE TERM
 =  86.16    (WHEN MIN. R.F.=1)  AT K=   2, I=   1, J= 120

 MAXIMUM STEPSIZE WHICH MEETS STABILITY CRITERION OF THE DISPERSION TERM
 =  20.29    (WHEN MIN. R.F.=1)  AT K=   1, I=   1, J=  31
     1 CALLS TO GCG PACKAGE FOR TRANSPORT TIME STEP   4 IN FLOW TIME STEP 150 STRESS PERIOD   1
     6 TOTAL ITERATIONS
 
 SOLVING FOR HEAD 
 FLOW MODEL IS TRANSIENT
 FLOW MODEL CONTAINS CONSTANT-HEAD CELLS


 MAXIMUM STEPSIZE DURING WHICH ANY PARTICLE CANNOT MOVE MORE THAN ONE CELL
 =  4.849    (WHEN MIN. R.F.=1)  AT K=   4, I=   1, J=  72

 MAXIMUM STEPSIZE WHICH MEETS STABILITY CRITERION OF THE ADVECTION TERM
 (FOR PURE FINITE-DIFFERENCE OPTION, MIXELM=0) 
 =  3.046    (WHEN MIN. R.F.=1)  AT K=   2, I=   1, J=  78


 TOTAL NUMBER OF POINT SOURCES/SINKS PRESENT IN THE FLOW MODEL =    62

 MAXIMUM STEPSIZE WHICH MEETS STABILITY CRITERION OF THE SINK & SOURCE TERM
 =  83.91    (WHEN MIN. R.F.=1)  AT K=   2, I=   1, J= 120

 MAXIMUM STEPSIZE WHICH MEETS STABILITY CRITERION OF THE DISPERSION TERM
 =  20.29    (WHEN MIN. R.F.=1)  AT K=   1, I=   1, J=  31
     1 CALLS TO GCG PACKAGE FOR TRANSPORT TIME STEP   5 IN FLOW TIME STEP 150 STRESS PERIOD   1
     4 TOTAL ITERATIONS
  MAXIMUM CONCENTRATION CHANGES FOR EACH ITERATION:
  MAX. CHANGE LAYER,ROW,COL MAX. CHANGE LAYER,ROW,COL MAX. CHANGE LAYER,ROW,COL MAX. CHANGE LAYER,ROW,COL MAX. CHANGE LAYER,ROW,COL
 ------------------------------------------------------------------------------------------------------------------------------------
   0.9946E-02 (  2,  1, 79)  0.1134E-03 (  2,  1, 79)  0.1665E-05 (  3,  1, 42)  0.2667E-07 (  3,  1, 75)


                                          ================================================
                                                         FROM TIME =   1500.0     TO    1510.0    

 
 SOLVING FOR HEAD 
 FLOW MODEL IS TRANSIENT
 FLOW MODEL CONTAINS CONSTANT-HEAD CELLS


 MAXIMUM STEPSIZE DURING WHICH ANY PARTICLE CANNOT MOVE MORE THAN ONE CELL
 =  4.850    (WHEN MIN. R.F.=1)  AT K=   4, I=   1, J=  72

 MAXIMUM STEPSIZE WHICH MEETS STABILITY CRITERION OF THE ADVECTION TERM
 (FOR PURE FINITE-DIFFERENCE OPTION, MIXELM=0) 
 =  3.064    (WHEN MIN. R.F.=1)  AT K=   2, I=   1, J=  78


 TOTAL NUMBER OF POINT SOURCES/SINKS PRESENT IN THE FLOW MODEL =    62

 MAXIMUM STEPSIZE WHICH MEETS STABILITY CRITERION OF THE SINK & SOURCE TERM
 =  92.42    (WHEN MIN. R.F.=1)  AT K=   2, I=   1, J= 120

 MAXIMUM STEPSIZE WHICH MEETS STABILITY CRITERION OF THE DISPERSION TERM
 =  20.29    (WHEN MIN. R.F.=1)  AT K=   1, I=   1, J=  31


     1 CALLS TO GCG PACKAGE FOR TRANSPORT TIME STEP   1 IN FLOW TIME STEP 151 STRESS PERIOD   1
     6 TOTAL ITERATIONS

 NO OUTPUT CONTROL FOR STRESS PERIOD    1   TIME STEP 151
 
 SOLVING FOR HEAD 
 FLOW MODEL IS TRANSIENT
 FLOW MODEL CONTAINS CONSTANT-HEAD CELLS


 MAXIMUM STEPSIZE DURING WHICH ANY PARTICLE CANNOT MOVE MORE THAN ONE CELL
 =  4.858    (WHEN MIN. R.F.=1)  AT K=   4, I=   1, J=  72

 MAXIMUM STEPSIZE WHICH MEETS STABILITY CRITERION OF THE ADVECTION TERM
 (FOR PURE FINITE-DIFFERENCE OPTION, MIXELM=0) 
 =  3.185    (WHEN MIN. R.F.=1)  AT K=   2, I=   1, J=  78


 TOTAL NUMBER OF POINT SOURCES/SINKS PRESENT IN THE FLOW MODEL =    62

 MAXIMUM STEPSIZE WHICH MEETS STABILITY CRITERION OF THE SINK & SOURCE TERM
 =  89.99    (WHEN MIN. R.F.=1)  AT K=   2, I=   1, J= 120

 MAXIMUM STEPSIZE WHICH MEETS STABILITY CRITERION OF THE DISPERSION TERM
 =  20.29    (WHEN MIN. R.F.=1)  AT K=   1, I=   1, J=  31
     1 CALLS TO GCG PACKAGE FOR TRANSPORT TIME STEP   2 IN FLOW TIME STEP 151 STRESS PERIOD   1
     6 TOTAL ITERATIONS
 
 SOLVING FOR HEAD 
 FLOW MODEL IS TRANSIENT
 FLOW MODEL CONTAINS CONSTANT-HEAD CELLS


 MAXIMUM STEPSIZE DURING WHICH ANY PARTICLE CANNOT MOVE MORE THAN ONE CELL
 =  4.882    (WHEN MIN. R.F.=1)  AT K=   4, I=   1, J=  72

 MAXIMUM STEPSIZE WHICH MEETS STABILITY CRITERION OF THE ADVECTION TERM
 (FOR PURE FINITE-DIFFERENCE OPTION, MIXELM=0) 
 =  3.119    (WHEN MIN. R.F.=1)  AT K=   2, I=   1, J=  42


 TOTAL NUMBER OF POINT SOURCES/SINKS PRESENT IN THE FLOW MODEL =    62

 MAXIMUM STEPSIZE WHICH MEETS STABILITY CRITERION OF THE SINK & SOURCE TERM
 =  90.48    (WHEN MIN. R.F.=1)  AT K=   2, I=   1, J= 120

 MAXIMUM STEPSIZE WHICH MEETS STABILITY CRITERION OF THE DISPERSION TERM
 =  20.29    (WHEN MIN. R.F.=1)  AT K=   1, I=   1, J=  31
     1 CALLS TO GCG PACKAGE FOR TRANSPORT TIME STEP   3 IN FLOW TIME STEP 151 STRESS PERIOD   1
     6 TOTAL ITERATIONS
 
 SOLVING FOR HEAD 
 FLOW MODEL IS TRANSIENT
 FLOW MODEL CONTAINS CONSTANT-HEAD CELLS


 MAXIMUM STEPSIZE DURING WHICH ANY PARTICLE CANNOT MOVE MORE THAN ONE CELL
 =  4.920    (WHEN MIN. R.F.=1)  AT K=   4, I=   1, J=  72

 MAXIMUM STEPSIZE WHICH MEETS STABILITY CRITERION OF THE ADVECTION TERM
 (FOR PURE FINITE-DIFFERENCE OPTION, MIXELM=0) 
 =  3.084    (WHEN MIN. R.F.=1)  AT K=   2, I=   1, J=  42


 TOTAL NUMBER OF POINT SOURCES/SINKS PRESENT IN THE FLOW MODEL =    62

 MAXIMUM STEPSIZE WHICH MEETS STABILITY CRITERION OF THE SINK & SOURCE TERM
 =  91.17    (WHEN MIN. R.F.=1)  AT K=   2, I=   1, J= 120

 MAXIMUM STEPSIZE WHICH MEETS STABILITY CRITERION OF THE DISPERSION TERM
 =  20.29    (WHEN MIN. R.F.=1)  AT K=   1, I=   1, J=  31
     1 CALLS TO GCG PACKAGE FOR TRANSPORT TIME STEP   4 IN FLOW TIME STEP 151 STRESS PERIOD   1
     6 TOTAL ITERATIONS
 
 SOLVING FOR HEAD 
 FLOW MODEL IS TRANSIENT
 FLOW MODEL CONTAINS CONSTANT-HEAD CELLS


 MAXIMUM STEPSIZE DURING WHICH ANY PARTICLE CANNOT MOVE MORE THAN ONE CELL
 =  4.969    (WHEN MIN. R.F.=1)  AT K=   4, I=   1, J=  72

 MAXIMUM STEPSIZE WHICH MEETS STABILITY CRITERION OF THE ADVECTION TERM
 (FOR PURE FINITE-DIFFERENCE OPTION, MIXELM=0) 
 =  3.155    (WHEN MIN. R.F.=1)  AT K=   2, I=   1, J=  42


 TOTAL NUMBER OF POINT SOURCES/SINKS PRESENT IN THE FLOW MODEL =    62

 MAXIMUM STEPSIZE WHICH MEETS STABILITY CRITERION OF THE SINK & SOURCE TERM
 =  88.64    (WHEN MIN. R.F.=1)  AT K=   2, I=   1, J= 120

 MAXIMUM STEPSIZE WHICH MEETS STABILITY CRITERION OF THE DISPERSION TERM
 =  20.29    (WHEN MIN. R.F.=1)  AT K=   1, I=   1, J=  31
     1 CALLS TO GCG PACKAGE FOR TRANSPORT TIME STEP   5 IN FLOW TIME STEP 151 STRESS PERIOD   1
     4 TOTAL ITERATIONS
  MAXIMUM CONCENTRATION CHANGES FOR EACH ITERATION:
  MAX. CHANGE LAYER,ROW,COL MAX. CHANGE LAYER,ROW,COL MAX. CHANGE LAYER,ROW,COL MAX. CHANGE LAYER,ROW,COL MAX. CHANGE LAYER,ROW,COL
 ------------------------------------------------------------------------------------------------------------------------------------
   0.9193E-02 (  2,  1, 41)  0.1085E-03 (  2,  1, 77)  0.1830E-05 (  3,  1, 43)  0.2358E-07 (  3,  1, 74)


                                          ================================================
                                                         FROM TIME =   1510.0     TO    1520.0    

 
 SOLVING FOR HEAD 
 FLOW MODEL IS TRANSIENT
 FLOW MODEL CONTAINS CONSTANT-HEAD CELLS


 MAXIMUM STEPSIZE DURING WHICH ANY PARTICLE CANNOT MOVE MORE THAN ONE CELL
 =  4.988    (WHEN MIN. R.F.=1)  AT K=   4, I=   1, J=  72

 MAXIMUM STEPSIZE WHICH MEETS STABILITY CRITERION OF THE ADVECTION TERM
 (FOR PURE FINITE-DIFFERENCE OPTION, MIXELM=0) 
 =  3.148    (WHEN MIN. R.F.=1)  AT K=   2, I=   1, J=  77


 TOTAL NUMBER OF POINT SOURCES/SINKS PRESENT IN THE FLOW MODEL =    62

 MAXIMUM STEPSIZE WHICH MEETS STABILITY CRITERION OF THE SINK & SOURCE TERM
 =  97.84    (WHEN MIN. R.F.=1)  AT K=   2, I=   1, J= 120

 MAXIMUM STEPSIZE WHICH MEETS STABILITY CRITERION OF THE DISPERSION TERM
 =  20.29    (WHEN MIN. R.F.=1)  AT K=   1, I=   1, J=  31


     1 CALLS TO GCG PACKAGE FOR TRANSPORT TIME STEP   1 IN FLOW TIME STEP 152 STRESS PERIOD   1
     6 TOTAL ITERATIONS

 NO OUTPUT CONTROL FOR STRESS PERIOD    1   TIME STEP 152
 
 SOLVING FOR HEAD 
 FLOW MODEL IS TRANSIENT
 FLOW MODEL CONTAINS CONSTANT-HEAD CELLS


 MAXIMUM STEPSIZE DURING WHICH ANY PARTICLE CANNOT MOVE MORE THAN ONE CELL
 =  5.051    (WHEN MIN. R.F.=1)  AT K=   5, I=   1, J=  72

 MAXIMUM STEPSIZE WHICH MEETS STABILITY CRITERION OF THE ADVECTION TERM
 (FOR PURE FINITE-DIFFERENCE OPTION, MIXELM=0) 
 =  3.153    (WHEN MIN. R.F.=1)  AT K=   2, I=   1, J=  77


 TOTAL NUMBER OF POINT SOURCES/SINKS PRESENT IN THE FLOW MODEL =    62

 MAXIMUM STEPSIZE WHICH MEETS STABILITY CRITERION OF THE SINK & SOURCE TERM
 =  93.66    (WHEN MIN. R.F.=1)  AT K=   2, I=   1, J= 120

 MAXIMUM STEPSIZE WHICH MEETS STABILITY CRITERION OF THE DISPERSION TERM
 =  20.29    (WHEN MIN. R.F.=1)  AT K=   1, I=   1, J=  31
     1 CALLS TO GCG PACKAGE FOR TRANSPORT TIME STEP   2 IN FLOW TIME STEP 152 STRESS PERIOD   1
     5 TOTAL ITERATIONS



 >>>>>>>>>>>>>>>>>>>>>>>>>>>>>>>>>>>>>>>>>>>>>>>>>>>>>>>FOR COMPONENT NO. 01<<<<<<<<<<<<<<<<<<<<<<<<<<<<<<<<<<<<<<<<<<<<<<<<<<<<<<<


                                            -------------------------------------------
                                                      TRANSPORT STEP NO.    2
                                            -------------------------------------------

 TOTAL ELAPSED TIME SINCE BEGINNING OF SIMULATION =   1513.400    D   
 .....................................................................

                     CUMULATIVE MASS BUDGETS AT END OF TRANSPORT STEP    2, TIME STEP  152, STRESS PERIOD    1
                     ------------------------------------------------------------------------------------------

                                                             IN                           OUT
                                                      ----------------             ----------------
                               CONSTANT CONCENTRATION:    1126506.                   -352486.7    
                                        CONSTANT HEAD:    0.000000                  -0.2720247E-02
                               MASS STOR (FLOW MODEL):    149.4612                   -206.1460    
                                MASS STORAGE (SOLUTE):    1553460.                   -2327423.    
                            ---------------------------------------------------------------------------
                                              [TOTAL]:    2680116.     KG            -2680116.     KG  

                                                          NET (IN - OUT):   0.6713318E-02
                                                   DISCREPANCY (PERCENT):   0.2504861E-06
 
 SOLVING FOR HEAD 
 FLOW MODEL IS TRANSIENT
 FLOW MODEL CONTAINS CONSTANT-HEAD CELLS


 MAXIMUM STEPSIZE DURING WHICH ANY PARTICLE CANNOT MOVE MORE THAN ONE CELL
 =  5.074    (WHEN MIN. R.F.=1)  AT K=   5, I=   1, J=  72

 MAXIMUM STEPSIZE WHICH MEETS STABILITY CRITERION OF THE ADVECTION TERM
 (FOR PURE FINITE-DIFFERENCE OPTION, MIXELM=0) 
 =  3.197    (WHEN MIN. R.F.=1)  AT K=   2, I=   1, J=  77


 TOTAL NUMBER OF POINT SOURCES/SINKS PRESENT IN THE FLOW MODEL =    62

 MAXIMUM STEPSIZE WHICH MEETS STABILITY CRITERION OF THE SINK & SOURCE TERM
 =  99.77    (WHEN MIN. R.F.=1)  AT K=   2, I=   1, J= 120

 MAXIMUM STEPSIZE WHICH MEETS STABILITY CRITERION OF THE DISPERSION TERM
 =  20.29    (WHEN MIN. R.F.=1)  AT K=   1, I=   1, J=  31
     1 CALLS TO GCG PACKAGE FOR TRANSPORT TIME STEP   3 IN FLOW TIME STEP 152 STRESS PERIOD   1
     6 TOTAL ITERATIONS
 
 SOLVING FOR HEAD 
 FLOW MODEL IS TRANSIENT
 FLOW MODEL CONTAINS CONSTANT-HEAD CELLS


 MAXIMUM STEPSIZE DURING WHICH ANY PARTICLE CANNOT MOVE MORE THAN ONE CELL
 =  5.131    (WHEN MIN. R.F.=1)  AT K=   5, I=   1, J=  72

 MAXIMUM STEPSIZE WHICH MEETS STABILITY CRITERION OF THE ADVECTION TERM
 (FOR PURE FINITE-DIFFERENCE OPTION, MIXELM=0) 
 =  3.178    (WHEN MIN. R.F.=1)  AT K=   2, I=   1, J=  43


 TOTAL NUMBER OF POINT SOURCES/SINKS PRESENT IN THE FLOW MODEL =    62

 MAXIMUM STEPSIZE WHICH MEETS STABILITY CRITERION OF THE SINK & SOURCE TERM
 =  96.72    (WHEN MIN. R.F.=1)  AT K=   2, I=   1, J= 120

 MAXIMUM STEPSIZE WHICH MEETS STABILITY CRITERION OF THE DISPERSION TERM
 =  20.29    (WHEN MIN. R.F.=1)  AT K=   1, I=   1, J=  31
     1 CALLS TO GCG PACKAGE FOR TRANSPORT TIME STEP   4 IN FLOW TIME STEP 152 STRESS PERIOD   1
     6 TOTAL ITERATIONS
 
 SOLVING FOR HEAD 
 FLOW MODEL IS TRANSIENT
 FLOW MODEL CONTAINS CONSTANT-HEAD CELLS


 MAXIMUM STEPSIZE DURING WHICH ANY PARTICLE CANNOT MOVE MORE THAN ONE CELL
 =  5.198    (WHEN MIN. R.F.=1)  AT K=   5, I=   1, J=  72

 MAXIMUM STEPSIZE WHICH MEETS STABILITY CRITERION OF THE ADVECTION TERM
 (FOR PURE FINITE-DIFFERENCE OPTION, MIXELM=0) 
 =  3.133    (WHEN MIN. R.F.=1)  AT K=   2, I=   1, J=  43


 TOTAL NUMBER OF POINT SOURCES/SINKS PRESENT IN THE FLOW MODEL =    62

 MAXIMUM STEPSIZE WHICH MEETS STABILITY CRITERION OF THE SINK & SOURCE TERM
 =  96.30    (WHEN MIN. R.F.=1)  AT K=   2, I=   1, J= 120

 MAXIMUM STEPSIZE WHICH MEETS STABILITY CRITERION OF THE DISPERSION TERM
 =  20.29    (WHEN MIN. R.F.=1)  AT K=   1, I=   1, J=  31
     1 CALLS TO GCG PACKAGE FOR TRANSPORT TIME STEP   5 IN FLOW TIME STEP 152 STRESS PERIOD   1
     5 TOTAL ITERATIONS
  MAXIMUM CONCENTRATION CHANGES FOR EACH ITERATION:
  MAX. CHANGE LAYER,ROW,COL MAX. CHANGE LAYER,ROW,COL MAX. CHANGE LAYER,ROW,COL MAX. CHANGE LAYER,ROW,COL MAX. CHANGE LAYER,ROW,COL
 ------------------------------------------------------------------------------------------------------------------------------------
   0.2542E-01 (  2,  1, 78)  0.8626E-03 (  2,  1, 76)  0.2923E-04 (  3,  1, 76)  0.8904E-06 (  3,  1, 83)  0.3639E-07 (  4,  1, 83)


                                          ================================================
                                                         FROM TIME =   1520.0     TO    1530.0    

 
 SOLVING FOR HEAD 
 FLOW MODEL IS TRANSIENT
 FLOW MODEL CONTAINS CONSTANT-HEAD CELLS


 MAXIMUM STEPSIZE DURING WHICH ANY PARTICLE CANNOT MOVE MORE THAN ONE CELL
 =  5.256    (WHEN MIN. R.F.=1)  AT K=   5, I=   1, J=  72

 MAXIMUM STEPSIZE WHICH MEETS STABILITY CRITERION OF THE ADVECTION TERM
 (FOR PURE FINITE-DIFFERENCE OPTION, MIXELM=0) 
 =  3.175    (WHEN MIN. R.F.=1)  AT K=   2, I=   1, J=  43


 TOTAL NUMBER OF POINT SOURCES/SINKS PRESENT IN THE FLOW MODEL =    62

 MAXIMUM STEPSIZE WHICH MEETS STABILITY CRITERION OF THE SINK & SOURCE TERM
 =  99.34    (WHEN MIN. R.F.=1)  AT K=   2, I=   1, J= 120

 MAXIMUM STEPSIZE WHICH MEETS STABILITY CRITERION OF THE DISPERSION TERM
 =  20.29    (WHEN MIN. R.F.=1)  AT K=   1, I=   1, J=  31


     1 CALLS TO GCG PACKAGE FOR TRANSPORT TIME STEP   1 IN FLOW TIME STEP 153 STRESS PERIOD   1
     6 TOTAL ITERATIONS

 NO OUTPUT CONTROL FOR STRESS PERIOD    1   TIME STEP 153
 
 SOLVING FOR HEAD 
 FLOW MODEL IS TRANSIENT
 FLOW MODEL CONTAINS CONSTANT-HEAD CELLS


 MAXIMUM STEPSIZE DURING WHICH ANY PARTICLE CANNOT MOVE MORE THAN ONE CELL
 =  5.336    (WHEN MIN. R.F.=1)  AT K=   5, I=   1, J=  72

 MAXIMUM STEPSIZE WHICH MEETS STABILITY CRITERION OF THE ADVECTION TERM
 (FOR PURE FINITE-DIFFERENCE OPTION, MIXELM=0) 
 =  3.295    (WHEN MIN. R.F.=1)  AT K=   2, I=   1, J=  76


 TOTAL NUMBER OF POINT SOURCES/SINKS PRESENT IN THE FLOW MODEL =    62

 MAXIMUM STEPSIZE WHICH MEETS STABILITY CRITERION OF THE SINK & SOURCE TERM
 =  99.49    (WHEN MIN. R.F.=1)  AT K=   2, I=   1, J= 120

 MAXIMUM STEPSIZE WHICH MEETS STABILITY CRITERION OF THE DISPERSION TERM
 =  20.29    (WHEN MIN. R.F.=1)  AT K=   1, I=   1, J=  31
     1 CALLS TO GCG PACKAGE FOR TRANSPORT TIME STEP   2 IN FLOW TIME STEP 153 STRESS PERIOD   1
     6 TOTAL ITERATIONS
 
 SOLVING FOR HEAD 
 FLOW MODEL IS TRANSIENT
 FLOW MODEL CONTAINS CONSTANT-HEAD CELLS


 MAXIMUM STEPSIZE DURING WHICH ANY PARTICLE CANNOT MOVE MORE THAN ONE CELL
 =  5.384    (WHEN MIN. R.F.=1)  AT K=   4, I=   1, J=  50

 MAXIMUM STEPSIZE WHICH MEETS STABILITY CRITERION OF THE ADVECTION TERM
 (FOR PURE FINITE-DIFFERENCE OPTION, MIXELM=0) 
 =  3.278    (WHEN MIN. R.F.=1)  AT K=   2, I=   1, J=  76


 TOTAL NUMBER OF POINT SOURCES/SINKS PRESENT IN THE FLOW MODEL =    62

 MAXIMUM STEPSIZE WHICH MEETS STABILITY CRITERION OF THE SINK & SOURCE TERM
 =  100.5    (WHEN MIN. R.F.=1)  AT K=   2, I=   1, J= 120

 MAXIMUM STEPSIZE WHICH MEETS STABILITY CRITERION OF THE DISPERSION TERM
 =  20.29    (WHEN MIN. R.F.=1)  AT K=   1, I=   1, J=  31
     1 CALLS TO GCG PACKAGE FOR TRANSPORT TIME STEP   3 IN FLOW TIME STEP 153 STRESS PERIOD   1
     6 TOTAL ITERATIONS
 
 SOLVING FOR HEAD 
 FLOW MODEL IS TRANSIENT
 FLOW MODEL CONTAINS CONSTANT-HEAD CELLS


 MAXIMUM STEPSIZE DURING WHICH ANY PARTICLE CANNOT MOVE MORE THAN ONE CELL
 =  5.346    (WHEN MIN. R.F.=1)  AT K=   4, I=   1, J=  50

 MAXIMUM STEPSIZE WHICH MEETS STABILITY CRITERION OF THE ADVECTION TERM
 (FOR PURE FINITE-DIFFERENCE OPTION, MIXELM=0) 
 =  3.269    (WHEN MIN. R.F.=1)  AT K=   2, I=   1, J=  44


 TOTAL NUMBER OF POINT SOURCES/SINKS PRESENT IN THE FLOW MODEL =    62

 MAXIMUM STEPSIZE WHICH MEETS STABILITY CRITERION OF THE SINK & SOURCE TERM
 =  101.4    (WHEN MIN. R.F.=1)  AT K=   2, I=   1, J= 120

 MAXIMUM STEPSIZE WHICH MEETS STABILITY CRITERION OF THE DISPERSION TERM
 =  20.29    (WHEN MIN. R.F.=1)  AT K=   1, I=   1, J=  31
     1 CALLS TO GCG PACKAGE FOR TRANSPORT TIME STEP   4 IN FLOW TIME STEP 153 STRESS PERIOD   1
     6 TOTAL ITERATIONS
 
 SOLVING FOR HEAD 
 FLOW MODEL IS TRANSIENT
 FLOW MODEL CONTAINS CONSTANT-HEAD CELLS


 MAXIMUM STEPSIZE DURING WHICH ANY PARTICLE CANNOT MOVE MORE THAN ONE CELL
 =  5.323    (WHEN MIN. R.F.=1)  AT K=   4, I=   1, J=  50

 MAXIMUM STEPSIZE WHICH MEETS STABILITY CRITERION OF THE ADVECTION TERM
 (FOR PURE FINITE-DIFFERENCE OPTION, MIXELM=0) 
 =  3.209    (WHEN MIN. R.F.=1)  AT K=   2, I=   1, J=  44


 TOTAL NUMBER OF POINT SOURCES/SINKS PRESENT IN THE FLOW MODEL =    62

 MAXIMUM STEPSIZE WHICH MEETS STABILITY CRITERION OF THE SINK & SOURCE TERM
 =  95.39    (WHEN MIN. R.F.=1)  AT K=   2, I=   1, J= 120

 MAXIMUM STEPSIZE WHICH MEETS STABILITY CRITERION OF THE DISPERSION TERM
 =  20.29    (WHEN MIN. R.F.=1)  AT K=   1, I=   1, J=  31
     1 CALLS TO GCG PACKAGE FOR TRANSPORT TIME STEP   5 IN FLOW TIME STEP 153 STRESS PERIOD   1
     4 TOTAL ITERATIONS
  MAXIMUM CONCENTRATION CHANGES FOR EACH ITERATION:
  MAX. CHANGE LAYER,ROW,COL MAX. CHANGE LAYER,ROW,COL MAX. CHANGE LAYER,ROW,COL MAX. CHANGE LAYER,ROW,COL MAX. CHANGE LAYER,ROW,COL
 ------------------------------------------------------------------------------------------------------------------------------------
   0.5180E-02 (  2,  1, 77)  0.2661E-04 (  2,  1, 75)  0.2069E-06 (  3,  1, 75)  0.1814E-08 (  3,  1, 47)


                                          ================================================
                                                         FROM TIME =   1530.0     TO    1540.0    

 
 SOLVING FOR HEAD 
 FLOW MODEL IS TRANSIENT
 FLOW MODEL CONTAINS CONSTANT-HEAD CELLS


 MAXIMUM STEPSIZE DURING WHICH ANY PARTICLE CANNOT MOVE MORE THAN ONE CELL
 =  5.321    (WHEN MIN. R.F.=1)  AT K=   4, I=   1, J=  50

 MAXIMUM STEPSIZE WHICH MEETS STABILITY CRITERION OF THE ADVECTION TERM
 (FOR PURE FINITE-DIFFERENCE OPTION, MIXELM=0) 
 =  3.211    (WHEN MIN. R.F.=1)  AT K=   2, I=   1, J=  44


 TOTAL NUMBER OF POINT SOURCES/SINKS PRESENT IN THE FLOW MODEL =    62

 MAXIMUM STEPSIZE WHICH MEETS STABILITY CRITERION OF THE SINK & SOURCE TERM
 =  105.1    (WHEN MIN. R.F.=1)  AT K=   2, I=   1, J= 120

 MAXIMUM STEPSIZE WHICH MEETS STABILITY CRITERION OF THE DISPERSION TERM
 =  20.29    (WHEN MIN. R.F.=1)  AT K=   1, I=   1, J=  31


     1 CALLS TO GCG PACKAGE FOR TRANSPORT TIME STEP   1 IN FLOW TIME STEP 154 STRESS PERIOD   1
     6 TOTAL ITERATIONS

 NO OUTPUT CONTROL FOR STRESS PERIOD    1   TIME STEP 154
 
 SOLVING FOR HEAD 
 FLOW MODEL IS TRANSIENT
 FLOW MODEL CONTAINS CONSTANT-HEAD CELLS


 MAXIMUM STEPSIZE DURING WHICH ANY PARTICLE CANNOT MOVE MORE THAN ONE CELL
 =  5.312    (WHEN MIN. R.F.=1)  AT K=   4, I=   1, J=  50

 MAXIMUM STEPSIZE WHICH MEETS STABILITY CRITERION OF THE ADVECTION TERM
 (FOR PURE FINITE-DIFFERENCE OPTION, MIXELM=0) 
 =  3.280    (WHEN MIN. R.F.=1)  AT K=   2, I=   1, J=  44


 TOTAL NUMBER OF POINT SOURCES/SINKS PRESENT IN THE FLOW MODEL =    62

 MAXIMUM STEPSIZE WHICH MEETS STABILITY CRITERION OF THE SINK & SOURCE TERM
 =  102.4    (WHEN MIN. R.F.=1)  AT K=   2, I=   1, J= 120

 MAXIMUM STEPSIZE WHICH MEETS STABILITY CRITERION OF THE DISPERSION TERM
 =  20.29    (WHEN MIN. R.F.=1)  AT K=   1, I=   1, J=  31
     1 CALLS TO GCG PACKAGE FOR TRANSPORT TIME STEP   2 IN FLOW TIME STEP 154 STRESS PERIOD   1
     6 TOTAL ITERATIONS
 
 SOLVING FOR HEAD 
 FLOW MODEL IS TRANSIENT
 FLOW MODEL CONTAINS CONSTANT-HEAD CELLS


 MAXIMUM STEPSIZE DURING WHICH ANY PARTICLE CANNOT MOVE MORE THAN ONE CELL
 =  5.317    (WHEN MIN. R.F.=1)  AT K=   4, I=   1, J=  50

 MAXIMUM STEPSIZE WHICH MEETS STABILITY CRITERION OF THE ADVECTION TERM
 (FOR PURE FINITE-DIFFERENCE OPTION, MIXELM=0) 
 =  3.487    (WHEN MIN. R.F.=1)  AT K=   2, I=   1, J=  44


 TOTAL NUMBER OF POINT SOURCES/SINKS PRESENT IN THE FLOW MODEL =    62

 MAXIMUM STEPSIZE WHICH MEETS STABILITY CRITERION OF THE SINK & SOURCE TERM
 =  102.3    (WHEN MIN. R.F.=1)  AT K=   2, I=   1, J= 120

 MAXIMUM STEPSIZE WHICH MEETS STABILITY CRITERION OF THE DISPERSION TERM
 =  20.29    (WHEN MIN. R.F.=1)  AT K=   1, I=   1, J=  31
     1 CALLS TO GCG PACKAGE FOR TRANSPORT TIME STEP   3 IN FLOW TIME STEP 154 STRESS PERIOD   1
     6 TOTAL ITERATIONS
 
 SOLVING FOR HEAD 
 FLOW MODEL IS TRANSIENT
 FLOW MODEL CONTAINS CONSTANT-HEAD CELLS


 MAXIMUM STEPSIZE DURING WHICH ANY PARTICLE CANNOT MOVE MORE THAN ONE CELL
 =  5.334    (WHEN MIN. R.F.=1)  AT K=   4, I=   1, J=  50

 MAXIMUM STEPSIZE WHICH MEETS STABILITY CRITERION OF THE ADVECTION TERM
 (FOR PURE FINITE-DIFFERENCE OPTION, MIXELM=0) 
 =  3.545    (WHEN MIN. R.F.=1)  AT K=   2, I=   1, J=  75


 TOTAL NUMBER OF POINT SOURCES/SINKS PRESENT IN THE FLOW MODEL =    62

 MAXIMUM STEPSIZE WHICH MEETS STABILITY CRITERION OF THE SINK & SOURCE TERM
 =  102.6    (WHEN MIN. R.F.=1)  AT K=   2, I=   1, J= 120

 MAXIMUM STEPSIZE WHICH MEETS STABILITY CRITERION OF THE DISPERSION TERM
 =  20.29    (WHEN MIN. R.F.=1)  AT K=   1, I=   1, J=  31
     1 CALLS TO GCG PACKAGE FOR TRANSPORT TIME STEP   4 IN FLOW TIME STEP 154 STRESS PERIOD   1
     6 TOTAL ITERATIONS
 
 SOLVING FOR HEAD 
 FLOW MODEL IS TRANSIENT
 FLOW MODEL CONTAINS CONSTANT-HEAD CELLS


 MAXIMUM STEPSIZE DURING WHICH ANY PARTICLE CANNOT MOVE MORE THAN ONE CELL
 =  5.366    (WHEN MIN. R.F.=1)  AT K=   4, I=   1, J=  50

 MAXIMUM STEPSIZE WHICH MEETS STABILITY CRITERION OF THE ADVECTION TERM
 (FOR PURE FINITE-DIFFERENCE OPTION, MIXELM=0) 
 =  3.373    (WHEN MIN. R.F.=1)  AT K=   2, I=   1, J=  45


 TOTAL NUMBER OF POINT SOURCES/SINKS PRESENT IN THE FLOW MODEL =    62

 MAXIMUM STEPSIZE WHICH MEETS STABILITY CRITERION OF THE SINK & SOURCE TERM
 =  94.37    (WHEN MIN. R.F.=1)  AT K=   2, I=   1, J= 120

 MAXIMUM STEPSIZE WHICH MEETS STABILITY CRITERION OF THE DISPERSION TERM
 =  20.29    (WHEN MIN. R.F.=1)  AT K=   1, I=   1, J=  31
     1 CALLS TO GCG PACKAGE FOR TRANSPORT TIME STEP   5 IN FLOW TIME STEP 154 STRESS PERIOD   1
     3 TOTAL ITERATIONS
  MAXIMUM CONCENTRATION CHANGES FOR EACH ITERATION:
  MAX. CHANGE LAYER,ROW,COL MAX. CHANGE LAYER,ROW,COL MAX. CHANGE LAYER,ROW,COL MAX. CHANGE LAYER,ROW,COL MAX. CHANGE LAYER,ROW,COL
 ------------------------------------------------------------------------------------------------------------------------------------
   0.1527E-02 (  2,  1, 76)  0.2882E-05 (  2,  1, 76)  0.7055E-08 (  2,  1, 77)


                                          ================================================
                                                         FROM TIME =   1540.0     TO    1550.0    

 
 SOLVING FOR HEAD 
 FLOW MODEL IS TRANSIENT
 FLOW MODEL CONTAINS CONSTANT-HEAD CELLS


 MAXIMUM STEPSIZE DURING WHICH ANY PARTICLE CANNOT MOVE MORE THAN ONE CELL
 =  5.368    (WHEN MIN. R.F.=1)  AT K=   4, I=   1, J=  50

 MAXIMUM STEPSIZE WHICH MEETS STABILITY CRITERION OF THE ADVECTION TERM
 (FOR PURE FINITE-DIFFERENCE OPTION, MIXELM=0) 
 =  3.370    (WHEN MIN. R.F.=1)  AT K=   2, I=   1, J=  45


 TOTAL NUMBER OF POINT SOURCES/SINKS PRESENT IN THE FLOW MODEL =    62

 MAXIMUM STEPSIZE WHICH MEETS STABILITY CRITERION OF THE SINK & SOURCE TERM
 =  106.7    (WHEN MIN. R.F.=1)  AT K=   2, I=   1, J= 120

 MAXIMUM STEPSIZE WHICH MEETS STABILITY CRITERION OF THE DISPERSION TERM
 =  20.29    (WHEN MIN. R.F.=1)  AT K=   1, I=   1, J=  31


     1 CALLS TO GCG PACKAGE FOR TRANSPORT TIME STEP   1 IN FLOW TIME STEP 155 STRESS PERIOD   1
     6 TOTAL ITERATIONS

 NO OUTPUT CONTROL FOR STRESS PERIOD    1   TIME STEP 155
 
 SOLVING FOR HEAD 
 FLOW MODEL IS TRANSIENT
 FLOW MODEL CONTAINS CONSTANT-HEAD CELLS


 MAXIMUM STEPSIZE DURING WHICH ANY PARTICLE CANNOT MOVE MORE THAN ONE CELL
 =  5.408    (WHEN MIN. R.F.=1)  AT K=   4, I=   1, J=  50

 MAXIMUM STEPSIZE WHICH MEETS STABILITY CRITERION OF THE ADVECTION TERM
 (FOR PURE FINITE-DIFFERENCE OPTION, MIXELM=0) 
 =  3.335    (WHEN MIN. R.F.=1)  AT K=   2, I=   1, J=  45


 TOTAL NUMBER OF POINT SOURCES/SINKS PRESENT IN THE FLOW MODEL =    62

 MAXIMUM STEPSIZE WHICH MEETS STABILITY CRITERION OF THE SINK & SOURCE TERM
 =  104.2    (WHEN MIN. R.F.=1)  AT K=   2, I=   1, J= 120

 MAXIMUM STEPSIZE WHICH MEETS STABILITY CRITERION OF THE DISPERSION TERM
 =  20.29    (WHEN MIN. R.F.=1)  AT K=   1, I=   1, J=  31
     1 CALLS TO GCG PACKAGE FOR TRANSPORT TIME STEP   2 IN FLOW TIME STEP 155 STRESS PERIOD   1
     6 TOTAL ITERATIONS
 
 SOLVING FOR HEAD 
 FLOW MODEL IS TRANSIENT
 FLOW MODEL CONTAINS CONSTANT-HEAD CELLS


 MAXIMUM STEPSIZE DURING WHICH ANY PARTICLE CANNOT MOVE MORE THAN ONE CELL
 =  5.461    (WHEN MIN. R.F.=1)  AT K=   4, I=   1, J=  50

 MAXIMUM STEPSIZE WHICH MEETS STABILITY CRITERION OF THE ADVECTION TERM
 (FOR PURE FINITE-DIFFERENCE OPTION, MIXELM=0) 
 =  3.410    (WHEN MIN. R.F.=1)  AT K=   2, I=   1, J=  45


 TOTAL NUMBER OF POINT SOURCES/SINKS PRESENT IN THE FLOW MODEL =    62

 MAXIMUM STEPSIZE WHICH MEETS STABILITY CRITERION OF THE SINK & SOURCE TERM
 =  101.3    (WHEN MIN. R.F.=1)  AT K=   2, I=   1, J= 120

 MAXIMUM STEPSIZE WHICH MEETS STABILITY CRITERION OF THE DISPERSION TERM
 =  20.29    (WHEN MIN. R.F.=1)  AT K=   1, I=   1, J=  31
     1 CALLS TO GCG PACKAGE FOR TRANSPORT TIME STEP   3 IN FLOW TIME STEP 155 STRESS PERIOD   1
     6 TOTAL ITERATIONS
 
 SOLVING FOR HEAD 
 FLOW MODEL IS TRANSIENT
 FLOW MODEL CONTAINS CONSTANT-HEAD CELLS


 MAXIMUM STEPSIZE DURING WHICH ANY PARTICLE CANNOT MOVE MORE THAN ONE CELL
 =  5.526    (WHEN MIN. R.F.=1)  AT K=   4, I=   1, J=  50

 MAXIMUM STEPSIZE WHICH MEETS STABILITY CRITERION OF THE ADVECTION TERM
 (FOR PURE FINITE-DIFFERENCE OPTION, MIXELM=0) 
 =  3.510    (WHEN MIN. R.F.=1)  AT K=   2, I=   1, J=  81


 TOTAL NUMBER OF POINT SOURCES/SINKS PRESENT IN THE FLOW MODEL =    62

 MAXIMUM STEPSIZE WHICH MEETS STABILITY CRITERION OF THE SINK & SOURCE TERM
 =  99.78    (WHEN MIN. R.F.=1)  AT K=   2, I=   1, J= 120

 MAXIMUM STEPSIZE WHICH MEETS STABILITY CRITERION OF THE DISPERSION TERM
 =  20.29    (WHEN MIN. R.F.=1)  AT K=   1, I=   1, J=  31
     1 CALLS TO GCG PACKAGE FOR TRANSPORT TIME STEP   4 IN FLOW TIME STEP 155 STRESS PERIOD   1
     6 TOTAL ITERATIONS
  MAXIMUM CONCENTRATION CHANGES FOR EACH ITERATION:
  MAX. CHANGE LAYER,ROW,COL MAX. CHANGE LAYER,ROW,COL MAX. CHANGE LAYER,ROW,COL MAX. CHANGE LAYER,ROW,COL MAX. CHANGE LAYER,ROW,COL
 ------------------------------------------------------------------------------------------------------------------------------------
   0.3274E-01 (  2,  1, 44)  0.1313E-02 (  2,  1, 82)  0.6562E-04 (  2,  1, 83)  0.2708E-05 (  3,  1, 83)  0.1499E-06 (  3,  1, 77)
   0.8111E-08 (  4,  1, 77)


                                          ================================================
                                                         FROM TIME =   1550.0     TO    1560.0    

 
 SOLVING FOR HEAD 
 FLOW MODEL IS TRANSIENT
 FLOW MODEL CONTAINS CONSTANT-HEAD CELLS


 MAXIMUM STEPSIZE DURING WHICH ANY PARTICLE CANNOT MOVE MORE THAN ONE CELL
 =  5.603    (WHEN MIN. R.F.=1)  AT K=   4, I=   1, J=  50

 MAXIMUM STEPSIZE WHICH MEETS STABILITY CRITERION OF THE ADVECTION TERM
 (FOR PURE FINITE-DIFFERENCE OPTION, MIXELM=0) 
 =  3.316    (WHEN MIN. R.F.=1)  AT K=   2, I=   1, J=  81


 TOTAL NUMBER OF POINT SOURCES/SINKS PRESENT IN THE FLOW MODEL =    62

 MAXIMUM STEPSIZE WHICH MEETS STABILITY CRITERION OF THE SINK & SOURCE TERM
 =  100.5    (WHEN MIN. R.F.=1)  AT K=   2, I=   1, J= 120

 MAXIMUM STEPSIZE WHICH MEETS STABILITY CRITERION OF THE DISPERSION TERM
 =  20.29    (WHEN MIN. R.F.=1)  AT K=   1, I=   1, J=  31


     1 CALLS TO GCG PACKAGE FOR TRANSPORT TIME STEP   1 IN FLOW TIME STEP 156 STRESS PERIOD   1
     6 TOTAL ITERATIONS

 NO OUTPUT CONTROL FOR STRESS PERIOD    1   TIME STEP 156
 
 SOLVING FOR HEAD 
 FLOW MODEL IS TRANSIENT
 FLOW MODEL CONTAINS CONSTANT-HEAD CELLS


 MAXIMUM STEPSIZE DURING WHICH ANY PARTICLE CANNOT MOVE MORE THAN ONE CELL
 =  5.685    (WHEN MIN. R.F.=1)  AT K=   5, I=   1, J=  50

 MAXIMUM STEPSIZE WHICH MEETS STABILITY CRITERION OF THE ADVECTION TERM
 (FOR PURE FINITE-DIFFERENCE OPTION, MIXELM=0) 
 =  3.282    (WHEN MIN. R.F.=1)  AT K=   2, I=   1, J=  81


 TOTAL NUMBER OF POINT SOURCES/SINKS PRESENT IN THE FLOW MODEL =    62

 MAXIMUM STEPSIZE WHICH MEETS STABILITY CRITERION OF THE SINK & SOURCE TERM
 =  100.0    (WHEN MIN. R.F.=1)  AT K=   2, I=   1, J= 120

 MAXIMUM STEPSIZE WHICH MEETS STABILITY CRITERION OF THE DISPERSION TERM
 =  20.29    (WHEN MIN. R.F.=1)  AT K=   1, I=   1, J=  31
     1 CALLS TO GCG PACKAGE FOR TRANSPORT TIME STEP   2 IN FLOW TIME STEP 156 STRESS PERIOD   1
     6 TOTAL ITERATIONS
 
 SOLVING FOR HEAD 
 FLOW MODEL IS TRANSIENT
 FLOW MODEL CONTAINS CONSTANT-HEAD CELLS


 MAXIMUM STEPSIZE DURING WHICH ANY PARTICLE CANNOT MOVE MORE THAN ONE CELL
 =  5.763    (WHEN MIN. R.F.=1)  AT K=   5, I=   1, J=  50

 MAXIMUM STEPSIZE WHICH MEETS STABILITY CRITERION OF THE ADVECTION TERM
 (FOR PURE FINITE-DIFFERENCE OPTION, MIXELM=0) 
 =  3.475    (WHEN MIN. R.F.=1)  AT K=   2, I=   1, J=  81


 TOTAL NUMBER OF POINT SOURCES/SINKS PRESENT IN THE FLOW MODEL =    62

 MAXIMUM STEPSIZE WHICH MEETS STABILITY CRITERION OF THE SINK & SOURCE TERM
 =  99.47    (WHEN MIN. R.F.=1)  AT K=   2, I=   1, J= 120

 MAXIMUM STEPSIZE WHICH MEETS STABILITY CRITERION OF THE DISPERSION TERM
 =  20.29    (WHEN MIN. R.F.=1)  AT K=   1, I=   1, J=  31
     1 CALLS TO GCG PACKAGE FOR TRANSPORT TIME STEP   3 IN FLOW TIME STEP 156 STRESS PERIOD   1
     6 TOTAL ITERATIONS
 
 SOLVING FOR HEAD 
 FLOW MODEL IS TRANSIENT
 FLOW MODEL CONTAINS CONSTANT-HEAD CELLS


 MAXIMUM STEPSIZE DURING WHICH ANY PARTICLE CANNOT MOVE MORE THAN ONE CELL
 =  5.849    (WHEN MIN. R.F.=1)  AT K=   5, I=   1, J=  50

 MAXIMUM STEPSIZE WHICH MEETS STABILITY CRITERION OF THE ADVECTION TERM
 (FOR PURE FINITE-DIFFERENCE OPTION, MIXELM=0) 
 =  3.191    (WHEN MIN. R.F.=1)  AT K=   2, I=   1, J=  80


 TOTAL NUMBER OF POINT SOURCES/SINKS PRESENT IN THE FLOW MODEL =    62

 MAXIMUM STEPSIZE WHICH MEETS STABILITY CRITERION OF THE SINK & SOURCE TERM
 =  98.29    (WHEN MIN. R.F.=1)  AT K=   2, I=   1, J= 120

 MAXIMUM STEPSIZE WHICH MEETS STABILITY CRITERION OF THE DISPERSION TERM
 =  20.29    (WHEN MIN. R.F.=1)  AT K=   1, I=   1, J=  31
     1 CALLS TO GCG PACKAGE FOR TRANSPORT TIME STEP   4 IN FLOW TIME STEP 156 STRESS PERIOD   1
     6 TOTAL ITERATIONS
  MAXIMUM CONCENTRATION CHANGES FOR EACH ITERATION:
  MAX. CHANGE LAYER,ROW,COL MAX. CHANGE LAYER,ROW,COL MAX. CHANGE LAYER,ROW,COL MAX. CHANGE LAYER,ROW,COL MAX. CHANGE LAYER,ROW,COL
 ------------------------------------------------------------------------------------------------------------------------------------
   0.3328E-01 (  2,  1, 75)  0.1187E-02 (  2,  1, 81)  0.5310E-04 (  3,  1, 48)  0.2860E-05 (  4,  1, 79)  0.1494E-06 (  2,  1, 80)
   0.8242E-08 (  4,  1, 76)


                                          ================================================
                                                         FROM TIME =   1560.0     TO    1570.0    

 
 SOLVING FOR HEAD 
 FLOW MODEL IS TRANSIENT
 FLOW MODEL CONTAINS CONSTANT-HEAD CELLS


 MAXIMUM STEPSIZE DURING WHICH ANY PARTICLE CANNOT MOVE MORE THAN ONE CELL
 =  5.939    (WHEN MIN. R.F.=1)  AT K=   5, I=   1, J=  50

 MAXIMUM STEPSIZE WHICH MEETS STABILITY CRITERION OF THE ADVECTION TERM
 (FOR PURE FINITE-DIFFERENCE OPTION, MIXELM=0) 
 =  3.030    (WHEN MIN. R.F.=1)  AT K=   2, I=   1, J=  80


 TOTAL NUMBER OF POINT SOURCES/SINKS PRESENT IN THE FLOW MODEL =    62

 MAXIMUM STEPSIZE WHICH MEETS STABILITY CRITERION OF THE SINK & SOURCE TERM
 =  97.89    (WHEN MIN. R.F.=1)  AT K=   2, I=   1, J= 120

 MAXIMUM STEPSIZE WHICH MEETS STABILITY CRITERION OF THE DISPERSION TERM
 =  20.29    (WHEN MIN. R.F.=1)  AT K=   1, I=   1, J=  31


     1 CALLS TO GCG PACKAGE FOR TRANSPORT TIME STEP   1 IN FLOW TIME STEP 157 STRESS PERIOD   1
     6 TOTAL ITERATIONS

 NO OUTPUT CONTROL FOR STRESS PERIOD    1   TIME STEP 157
 
 SOLVING FOR HEAD 
 FLOW MODEL IS TRANSIENT
 FLOW MODEL CONTAINS CONSTANT-HEAD CELLS


 MAXIMUM STEPSIZE DURING WHICH ANY PARTICLE CANNOT MOVE MORE THAN ONE CELL
 =  5.754    (WHEN MIN. R.F.=1)  AT K=   2, I=   1, J=  81

 MAXIMUM STEPSIZE WHICH MEETS STABILITY CRITERION OF THE ADVECTION TERM
 (FOR PURE FINITE-DIFFERENCE OPTION, MIXELM=0) 
 =  3.025    (WHEN MIN. R.F.=1)  AT K=   2, I=   1, J=  80


 TOTAL NUMBER OF POINT SOURCES/SINKS PRESENT IN THE FLOW MODEL =    62

 MAXIMUM STEPSIZE WHICH MEETS STABILITY CRITERION OF THE SINK & SOURCE TERM
 =  98.15    (WHEN MIN. R.F.=1)  AT K=   2, I=   1, J= 120

 MAXIMUM STEPSIZE WHICH MEETS STABILITY CRITERION OF THE DISPERSION TERM
 =  20.29    (WHEN MIN. R.F.=1)  AT K=   1, I=   1, J=  31
     1 CALLS TO GCG PACKAGE FOR TRANSPORT TIME STEP   2 IN FLOW TIME STEP 157 STRESS PERIOD   1
     6 TOTAL ITERATIONS
 
 SOLVING FOR HEAD 
 FLOW MODEL IS TRANSIENT
 FLOW MODEL CONTAINS CONSTANT-HEAD CELLS


 MAXIMUM STEPSIZE DURING WHICH ANY PARTICLE CANNOT MOVE MORE THAN ONE CELL
 =  5.664    (WHEN MIN. R.F.=1)  AT K=   2, I=   1, J=  81

 MAXIMUM STEPSIZE WHICH MEETS STABILITY CRITERION OF THE ADVECTION TERM
 (FOR PURE FINITE-DIFFERENCE OPTION, MIXELM=0) 
 =  3.208    (WHEN MIN. R.F.=1)  AT K=   2, I=   1, J=  80


 TOTAL NUMBER OF POINT SOURCES/SINKS PRESENT IN THE FLOW MODEL =    62

 MAXIMUM STEPSIZE WHICH MEETS STABILITY CRITERION OF THE SINK & SOURCE TERM
 =  98.13    (WHEN MIN. R.F.=1)  AT K=   2, I=   1, J= 120

 MAXIMUM STEPSIZE WHICH MEETS STABILITY CRITERION OF THE DISPERSION TERM
 =  20.29    (WHEN MIN. R.F.=1)  AT K=   1, I=   1, J=  31
     1 CALLS TO GCG PACKAGE FOR TRANSPORT TIME STEP   3 IN FLOW TIME STEP 157 STRESS PERIOD   1
     6 TOTAL ITERATIONS
 
 SOLVING FOR HEAD 
 FLOW MODEL IS TRANSIENT
 FLOW MODEL CONTAINS CONSTANT-HEAD CELLS


 MAXIMUM STEPSIZE DURING WHICH ANY PARTICLE CANNOT MOVE MORE THAN ONE CELL
 =  5.666    (WHEN MIN. R.F.=1)  AT K=   2, I=   1, J=  81

 MAXIMUM STEPSIZE WHICH MEETS STABILITY CRITERION OF THE ADVECTION TERM
 (FOR PURE FINITE-DIFFERENCE OPTION, MIXELM=0) 
 =  3.245    (WHEN MIN. R.F.=1)  AT K=   2, I=   1, J=  79


 TOTAL NUMBER OF POINT SOURCES/SINKS PRESENT IN THE FLOW MODEL =    62

 MAXIMUM STEPSIZE WHICH MEETS STABILITY CRITERION OF THE SINK & SOURCE TERM
 =  97.95    (WHEN MIN. R.F.=1)  AT K=   2, I=   1, J= 120

 MAXIMUM STEPSIZE WHICH MEETS STABILITY CRITERION OF THE DISPERSION TERM
 =  20.29    (WHEN MIN. R.F.=1)  AT K=   1, I=   1, J=  31
     1 CALLS TO GCG PACKAGE FOR TRANSPORT TIME STEP   4 IN FLOW TIME STEP 157 STRESS PERIOD   1
     6 TOTAL ITERATIONS
 
 SOLVING FOR HEAD 
 FLOW MODEL IS TRANSIENT
 FLOW MODEL CONTAINS CONSTANT-HEAD CELLS


 MAXIMUM STEPSIZE DURING WHICH ANY PARTICLE CANNOT MOVE MORE THAN ONE CELL
 =  5.572    (WHEN MIN. R.F.=1)  AT K=   3, I=   1, J=  73

 MAXIMUM STEPSIZE WHICH MEETS STABILITY CRITERION OF THE ADVECTION TERM
 (FOR PURE FINITE-DIFFERENCE OPTION, MIXELM=0) 
 =  3.050    (WHEN MIN. R.F.=1)  AT K=   2, I=   1, J=  79


 TOTAL NUMBER OF POINT SOURCES/SINKS PRESENT IN THE FLOW MODEL =    62

 MAXIMUM STEPSIZE WHICH MEETS STABILITY CRITERION OF THE SINK & SOURCE TERM
 =  94.06    (WHEN MIN. R.F.=1)  AT K=   2, I=   1, J= 120

 MAXIMUM STEPSIZE WHICH MEETS STABILITY CRITERION OF THE DISPERSION TERM
 =  20.29    (WHEN MIN. R.F.=1)  AT K=   1, I=   1, J=  31
     1 CALLS TO GCG PACKAGE FOR TRANSPORT TIME STEP   5 IN FLOW TIME STEP 157 STRESS PERIOD   1
     4 TOTAL ITERATIONS
  MAXIMUM CONCENTRATION CHANGES FOR EACH ITERATION:
  MAX. CHANGE LAYER,ROW,COL MAX. CHANGE LAYER,ROW,COL MAX. CHANGE LAYER,ROW,COL MAX. CHANGE LAYER,ROW,COL MAX. CHANGE LAYER,ROW,COL
 ------------------------------------------------------------------------------------------------------------------------------------
   0.9210E-02 (  2,  1, 38)  0.1086E-03 (  2,  1, 79)  0.1508E-05 (  3,  1, 79)  0.2155E-07 (  3,  1, 80)


                                          ================================================
                                                         FROM TIME =   1570.0     TO    1580.0    

 
 SOLVING FOR HEAD 
 FLOW MODEL IS TRANSIENT
 FLOW MODEL CONTAINS CONSTANT-HEAD CELLS


 MAXIMUM STEPSIZE DURING WHICH ANY PARTICLE CANNOT MOVE MORE THAN ONE CELL
 =  5.559    (WHEN MIN. R.F.=1)  AT K=   4, I=   1, J=  73

 MAXIMUM STEPSIZE WHICH MEETS STABILITY CRITERION OF THE ADVECTION TERM
 (FOR PURE FINITE-DIFFERENCE OPTION, MIXELM=0) 
 =  3.027    (WHEN MIN. R.F.=1)  AT K=   2, I=   1, J=  79


 TOTAL NUMBER OF POINT SOURCES/SINKS PRESENT IN THE FLOW MODEL =    62

 MAXIMUM STEPSIZE WHICH MEETS STABILITY CRITERION OF THE SINK & SOURCE TERM
 =  103.4    (WHEN MIN. R.F.=1)  AT K=   2, I=   1, J= 120

 MAXIMUM STEPSIZE WHICH MEETS STABILITY CRITERION OF THE DISPERSION TERM
 =  20.29    (WHEN MIN. R.F.=1)  AT K=   1, I=   1, J=  31


     1 CALLS TO GCG PACKAGE FOR TRANSPORT TIME STEP   1 IN FLOW TIME STEP 158 STRESS PERIOD   1
     6 TOTAL ITERATIONS

 NO OUTPUT CONTROL FOR STRESS PERIOD    1   TIME STEP 158
 
 SOLVING FOR HEAD 
 FLOW MODEL IS TRANSIENT
 FLOW MODEL CONTAINS CONSTANT-HEAD CELLS


 MAXIMUM STEPSIZE DURING WHICH ANY PARTICLE CANNOT MOVE MORE THAN ONE CELL
 =  5.419    (WHEN MIN. R.F.=1)  AT K=   4, I=   1, J=  73

 MAXIMUM STEPSIZE WHICH MEETS STABILITY CRITERION OF THE ADVECTION TERM
 (FOR PURE FINITE-DIFFERENCE OPTION, MIXELM=0) 
 =  3.001    (WHEN MIN. R.F.=1)  AT K=   2, I=   1, J=  79


 TOTAL NUMBER OF POINT SOURCES/SINKS PRESENT IN THE FLOW MODEL =    62

 MAXIMUM STEPSIZE WHICH MEETS STABILITY CRITERION OF THE SINK & SOURCE TERM
 =  100.5    (WHEN MIN. R.F.=1)  AT K=   2, I=   1, J= 120

 MAXIMUM STEPSIZE WHICH MEETS STABILITY CRITERION OF THE DISPERSION TERM
 =  20.29    (WHEN MIN. R.F.=1)  AT K=   1, I=   1, J=  31
     1 CALLS TO GCG PACKAGE FOR TRANSPORT TIME STEP   2 IN FLOW TIME STEP 158 STRESS PERIOD   1
     6 TOTAL ITERATIONS
 
 SOLVING FOR HEAD 
 FLOW MODEL IS TRANSIENT
 FLOW MODEL CONTAINS CONSTANT-HEAD CELLS


 MAXIMUM STEPSIZE DURING WHICH ANY PARTICLE CANNOT MOVE MORE THAN ONE CELL
 =  5.375    (WHEN MIN. R.F.=1)  AT K=   4, I=   1, J=  73

 MAXIMUM STEPSIZE WHICH MEETS STABILITY CRITERION OF THE ADVECTION TERM
 (FOR PURE FINITE-DIFFERENCE OPTION, MIXELM=0) 
 =  3.091    (WHEN MIN. R.F.=1)  AT K=   2, I=   1, J=  79


 TOTAL NUMBER OF POINT SOURCES/SINKS PRESENT IN THE FLOW MODEL =    62

 MAXIMUM STEPSIZE WHICH MEETS STABILITY CRITERION OF THE SINK & SOURCE TERM
 =  101.9    (WHEN MIN. R.F.=1)  AT K=   2, I=   1, J= 120

 MAXIMUM STEPSIZE WHICH MEETS STABILITY CRITERION OF THE DISPERSION TERM
 =  20.29    (WHEN MIN. R.F.=1)  AT K=   1, I=   1, J=  31
     1 CALLS TO GCG PACKAGE FOR TRANSPORT TIME STEP   3 IN FLOW TIME STEP 158 STRESS PERIOD   1
     6 TOTAL ITERATIONS
 
 SOLVING FOR HEAD 
 FLOW MODEL IS TRANSIENT
 FLOW MODEL CONTAINS CONSTANT-HEAD CELLS


 MAXIMUM STEPSIZE DURING WHICH ANY PARTICLE CANNOT MOVE MORE THAN ONE CELL
 =  5.416    (WHEN MIN. R.F.=1)  AT K=   4, I=   1, J=  73

 MAXIMUM STEPSIZE WHICH MEETS STABILITY CRITERION OF THE ADVECTION TERM
 (FOR PURE FINITE-DIFFERENCE OPTION, MIXELM=0) 
 =  3.359    (WHEN MIN. R.F.=1)  AT K=   2, I=   1, J=  79


 TOTAL NUMBER OF POINT SOURCES/SINKS PRESENT IN THE FLOW MODEL =    62

 MAXIMUM STEPSIZE WHICH MEETS STABILITY CRITERION OF THE SINK & SOURCE TERM
 =  102.0    (WHEN MIN. R.F.=1)  AT K=   2, I=   1, J= 120

 MAXIMUM STEPSIZE WHICH MEETS STABILITY CRITERION OF THE DISPERSION TERM
 =  20.29    (WHEN MIN. R.F.=1)  AT K=   1, I=   1, J=  31
     1 CALLS TO GCG PACKAGE FOR TRANSPORT TIME STEP   4 IN FLOW TIME STEP 158 STRESS PERIOD   1
     6 TOTAL ITERATIONS
 
 SOLVING FOR HEAD 
 FLOW MODEL IS TRANSIENT
 FLOW MODEL CONTAINS CONSTANT-HEAD CELLS


 MAXIMUM STEPSIZE DURING WHICH ANY PARTICLE CANNOT MOVE MORE THAN ONE CELL
 =  5.479    (WHEN MIN. R.F.=1)  AT K=   4, I=   1, J=  72

 MAXIMUM STEPSIZE WHICH MEETS STABILITY CRITERION OF THE ADVECTION TERM
 (FOR PURE FINITE-DIFFERENCE OPTION, MIXELM=0) 
 =  3.275    (WHEN MIN. R.F.=1)  AT K=   2, I=   1, J=  78


 TOTAL NUMBER OF POINT SOURCES/SINKS PRESENT IN THE FLOW MODEL =    62

 MAXIMUM STEPSIZE WHICH MEETS STABILITY CRITERION OF THE SINK & SOURCE TERM
 =  99.00    (WHEN MIN. R.F.=1)  AT K=   2, I=   1, J= 120

 MAXIMUM STEPSIZE WHICH MEETS STABILITY CRITERION OF THE DISPERSION TERM
 =  20.29    (WHEN MIN. R.F.=1)  AT K=   1, I=   1, J=  31
     1 CALLS TO GCG PACKAGE FOR TRANSPORT TIME STEP   5 IN FLOW TIME STEP 158 STRESS PERIOD   1
     4 TOTAL ITERATIONS
  MAXIMUM CONCENTRATION CHANGES FOR EACH ITERATION:
  MAX. CHANGE LAYER,ROW,COL MAX. CHANGE LAYER,ROW,COL MAX. CHANGE LAYER,ROW,COL MAX. CHANGE LAYER,ROW,COL MAX. CHANGE LAYER,ROW,COL
 ------------------------------------------------------------------------------------------------------------------------------------
   0.1208E-01 (  2,  1, 39)  0.2127E-03 (  2,  1, 78)  0.3854E-05 (  3,  1, 78)  0.6929E-07 (  3,  1, 75)


                                          ================================================
                                                         FROM TIME =   1580.0     TO    1590.0    

 
 SOLVING FOR HEAD 
 FLOW MODEL IS TRANSIENT
 FLOW MODEL CONTAINS CONSTANT-HEAD CELLS


 MAXIMUM STEPSIZE DURING WHICH ANY PARTICLE CANNOT MOVE MORE THAN ONE CELL
 =  5.470    (WHEN MIN. R.F.=1)  AT K=   4, I=   1, J=  72

 MAXIMUM STEPSIZE WHICH MEETS STABILITY CRITERION OF THE ADVECTION TERM
 (FOR PURE FINITE-DIFFERENCE OPTION, MIXELM=0) 
 =  3.210    (WHEN MIN. R.F.=1)  AT K=   2, I=   1, J=  78


 TOTAL NUMBER OF POINT SOURCES/SINKS PRESENT IN THE FLOW MODEL =    62

 MAXIMUM STEPSIZE WHICH MEETS STABILITY CRITERION OF THE SINK & SOURCE TERM
 =  106.4    (WHEN MIN. R.F.=1)  AT K=   2, I=   1, J= 120

 MAXIMUM STEPSIZE WHICH MEETS STABILITY CRITERION OF THE DISPERSION TERM
 =  20.29    (WHEN MIN. R.F.=1)  AT K=   1, I=   1, J=  31


     1 CALLS TO GCG PACKAGE FOR TRANSPORT TIME STEP   1 IN FLOW TIME STEP 159 STRESS PERIOD   1
     6 TOTAL ITERATIONS

 NO OUTPUT CONTROL FOR STRESS PERIOD    1   TIME STEP 159
 
 SOLVING FOR HEAD 
 FLOW MODEL IS TRANSIENT
 FLOW MODEL CONTAINS CONSTANT-HEAD CELLS


 MAXIMUM STEPSIZE DURING WHICH ANY PARTICLE CANNOT MOVE MORE THAN ONE CELL
 =  5.453    (WHEN MIN. R.F.=1)  AT K=   4, I=   1, J=  72

 MAXIMUM STEPSIZE WHICH MEETS STABILITY CRITERION OF THE ADVECTION TERM
 (FOR PURE FINITE-DIFFERENCE OPTION, MIXELM=0) 
 =  3.113    (WHEN MIN. R.F.=1)  AT K=   2, I=   1, J=  78


 TOTAL NUMBER OF POINT SOURCES/SINKS PRESENT IN THE FLOW MODEL =    62

 MAXIMUM STEPSIZE WHICH MEETS STABILITY CRITERION OF THE SINK & SOURCE TERM
 =  101.8    (WHEN MIN. R.F.=1)  AT K=   2, I=   1, J= 120

 MAXIMUM STEPSIZE WHICH MEETS STABILITY CRITERION OF THE DISPERSION TERM
 =  20.29    (WHEN MIN. R.F.=1)  AT K=   1, I=   1, J=  31
     1 CALLS TO GCG PACKAGE FOR TRANSPORT TIME STEP   2 IN FLOW TIME STEP 159 STRESS PERIOD   1
     6 TOTAL ITERATIONS
 
 SOLVING FOR HEAD 
 FLOW MODEL IS TRANSIENT
 FLOW MODEL CONTAINS CONSTANT-HEAD CELLS


 MAXIMUM STEPSIZE DURING WHICH ANY PARTICLE CANNOT MOVE MORE THAN ONE CELL
 =  5.449    (WHEN MIN. R.F.=1)  AT K=   4, I=   1, J=  72

 MAXIMUM STEPSIZE WHICH MEETS STABILITY CRITERION OF THE ADVECTION TERM
 (FOR PURE FINITE-DIFFERENCE OPTION, MIXELM=0) 
 =  3.136    (WHEN MIN. R.F.=1)  AT K=   2, I=   1, J=  78


 TOTAL NUMBER OF POINT SOURCES/SINKS PRESENT IN THE FLOW MODEL =    62

 MAXIMUM STEPSIZE WHICH MEETS STABILITY CRITERION OF THE SINK & SOURCE TERM
 =  102.5    (WHEN MIN. R.F.=1)  AT K=   2, I=   1, J= 120

 MAXIMUM STEPSIZE WHICH MEETS STABILITY CRITERION OF THE DISPERSION TERM
 =  20.29    (WHEN MIN. R.F.=1)  AT K=   1, I=   1, J=  31
     1 CALLS TO GCG PACKAGE FOR TRANSPORT TIME STEP   3 IN FLOW TIME STEP 159 STRESS PERIOD   1
     6 TOTAL ITERATIONS
 
 SOLVING FOR HEAD 
 FLOW MODEL IS TRANSIENT
 FLOW MODEL CONTAINS CONSTANT-HEAD CELLS


 MAXIMUM STEPSIZE DURING WHICH ANY PARTICLE CANNOT MOVE MORE THAN ONE CELL
 =  5.459    (WHEN MIN. R.F.=1)  AT K=   4, I=   1, J=  72

 MAXIMUM STEPSIZE WHICH MEETS STABILITY CRITERION OF THE ADVECTION TERM
 (FOR PURE FINITE-DIFFERENCE OPTION, MIXELM=0) 
 =  3.280    (WHEN MIN. R.F.=1)  AT K=   2, I=   1, J=  78


 TOTAL NUMBER OF POINT SOURCES/SINKS PRESENT IN THE FLOW MODEL =    62

 MAXIMUM STEPSIZE WHICH MEETS STABILITY CRITERION OF THE SINK & SOURCE TERM
 =  104.1    (WHEN MIN. R.F.=1)  AT K=   2, I=   1, J= 120

 MAXIMUM STEPSIZE WHICH MEETS STABILITY CRITERION OF THE DISPERSION TERM
 =  20.29    (WHEN MIN. R.F.=1)  AT K=   1, I=   1, J=  31
     1 CALLS TO GCG PACKAGE FOR TRANSPORT TIME STEP   4 IN FLOW TIME STEP 159 STRESS PERIOD   1
     6 TOTAL ITERATIONS
 
 SOLVING FOR HEAD 
 FLOW MODEL IS TRANSIENT
 FLOW MODEL CONTAINS CONSTANT-HEAD CELLS


 MAXIMUM STEPSIZE DURING WHICH ANY PARTICLE CANNOT MOVE MORE THAN ONE CELL
 =  5.475    (WHEN MIN. R.F.=1)  AT K=   4, I=   1, J=  72

 MAXIMUM STEPSIZE WHICH MEETS STABILITY CRITERION OF THE ADVECTION TERM
 (FOR PURE FINITE-DIFFERENCE OPTION, MIXELM=0) 
 =  3.302    (WHEN MIN. R.F.=1)  AT K=   2, I=   1, J=  42


 TOTAL NUMBER OF POINT SOURCES/SINKS PRESENT IN THE FLOW MODEL =    62

 MAXIMUM STEPSIZE WHICH MEETS STABILITY CRITERION OF THE SINK & SOURCE TERM
 =  99.38    (WHEN MIN. R.F.=1)  AT K=   2, I=   1, J= 120

 MAXIMUM STEPSIZE WHICH MEETS STABILITY CRITERION OF THE DISPERSION TERM
 =  20.29    (WHEN MIN. R.F.=1)  AT K=   1, I=   1, J=  31
     1 CALLS TO GCG PACKAGE FOR TRANSPORT TIME STEP   5 IN FLOW TIME STEP 159 STRESS PERIOD   1
     4 TOTAL ITERATIONS
  MAXIMUM CONCENTRATION CHANGES FOR EACH ITERATION:
  MAX. CHANGE LAYER,ROW,COL MAX. CHANGE LAYER,ROW,COL MAX. CHANGE LAYER,ROW,COL MAX. CHANGE LAYER,ROW,COL MAX. CHANGE LAYER,ROW,COL
 ------------------------------------------------------------------------------------------------------------------------------------
   0.6495E-02 (  2,  1, 79)  0.4913E-04 (  2,  1, 77)  0.4823E-06 (  3,  1, 77)  0.4028E-08 (  3,  1, 75)


                                          ================================================
                                                         FROM TIME =   1590.0     TO    1600.0    

 
 SOLVING FOR HEAD 
 FLOW MODEL IS TRANSIENT
 FLOW MODEL CONTAINS CONSTANT-HEAD CELLS


 MAXIMUM STEPSIZE DURING WHICH ANY PARTICLE CANNOT MOVE MORE THAN ONE CELL
 =  5.479    (WHEN MIN. R.F.=1)  AT K=   4, I=   1, J=  72

 MAXIMUM STEPSIZE WHICH MEETS STABILITY CRITERION OF THE ADVECTION TERM
 (FOR PURE FINITE-DIFFERENCE OPTION, MIXELM=0) 
 =  3.266    (WHEN MIN. R.F.=1)  AT K=   2, I=   1, J=  42


 TOTAL NUMBER OF POINT SOURCES/SINKS PRESENT IN THE FLOW MODEL =    62

 MAXIMUM STEPSIZE WHICH MEETS STABILITY CRITERION OF THE SINK & SOURCE TERM
 =  111.2    (WHEN MIN. R.F.=1)  AT K=   2, I=   1, J= 120

 MAXIMUM STEPSIZE WHICH MEETS STABILITY CRITERION OF THE DISPERSION TERM
 =  20.29    (WHEN MIN. R.F.=1)  AT K=   1, I=   1, J=  31


     1 CALLS TO GCG PACKAGE FOR TRANSPORT TIME STEP   1 IN FLOW TIME STEP 160 STRESS PERIOD   1
     6 TOTAL ITERATIONS

 NO OUTPUT CONTROL FOR STRESS PERIOD    1   TIME STEP 160
 
 SOLVING FOR HEAD 
 FLOW MODEL IS TRANSIENT
 FLOW MODEL CONTAINS CONSTANT-HEAD CELLS


 MAXIMUM STEPSIZE DURING WHICH ANY PARTICLE CANNOT MOVE MORE THAN ONE CELL
 =  5.502    (WHEN MIN. R.F.=1)  AT K=   4, I=   1, J=  72

 MAXIMUM STEPSIZE WHICH MEETS STABILITY CRITERION OF THE ADVECTION TERM
 (FOR PURE FINITE-DIFFERENCE OPTION, MIXELM=0) 
 =  3.139    (WHEN MIN. R.F.=1)  AT K=   2, I=   1, J=  42


 TOTAL NUMBER OF POINT SOURCES/SINKS PRESENT IN THE FLOW MODEL =    62

 MAXIMUM STEPSIZE WHICH MEETS STABILITY CRITERION OF THE SINK & SOURCE TERM
 =  106.9    (WHEN MIN. R.F.=1)  AT K=   2, I=   1, J= 120

 MAXIMUM STEPSIZE WHICH MEETS STABILITY CRITERION OF THE DISPERSION TERM
 =  20.29    (WHEN MIN. R.F.=1)  AT K=   1, I=   1, J=  31
     1 CALLS TO GCG PACKAGE FOR TRANSPORT TIME STEP   2 IN FLOW TIME STEP 160 STRESS PERIOD   1
     6 TOTAL ITERATIONS
 
 SOLVING FOR HEAD 
 FLOW MODEL IS TRANSIENT
 FLOW MODEL CONTAINS CONSTANT-HEAD CELLS


 MAXIMUM STEPSIZE DURING WHICH ANY PARTICLE CANNOT MOVE MORE THAN ONE CELL
 =  5.525    (WHEN MIN. R.F.=1)  AT K=   4, I=   1, J=  72

 MAXIMUM STEPSIZE WHICH MEETS STABILITY CRITERION OF THE ADVECTION TERM
 (FOR PURE FINITE-DIFFERENCE OPTION, MIXELM=0) 
 =  3.148    (WHEN MIN. R.F.=1)  AT K=   2, I=   1, J=  42


 TOTAL NUMBER OF POINT SOURCES/SINKS PRESENT IN THE FLOW MODEL =    62

 MAXIMUM STEPSIZE WHICH MEETS STABILITY CRITERION OF THE SINK & SOURCE TERM
 =  107.9    (WHEN MIN. R.F.=1)  AT K=   2, I=   1, J= 120

 MAXIMUM STEPSIZE WHICH MEETS STABILITY CRITERION OF THE DISPERSION TERM
 =  20.29    (WHEN MIN. R.F.=1)  AT K=   1, I=   1, J=  31
     1 CALLS TO GCG PACKAGE FOR TRANSPORT TIME STEP   3 IN FLOW TIME STEP 160 STRESS PERIOD   1
     6 TOTAL ITERATIONS
 
 SOLVING FOR HEAD 
 FLOW MODEL IS TRANSIENT
 FLOW MODEL CONTAINS CONSTANT-HEAD CELLS


 MAXIMUM STEPSIZE DURING WHICH ANY PARTICLE CANNOT MOVE MORE THAN ONE CELL
 =  5.479    (WHEN MIN. R.F.=1)  AT K=   3, I=   1, J=  49

 MAXIMUM STEPSIZE WHICH MEETS STABILITY CRITERION OF THE ADVECTION TERM
 (FOR PURE FINITE-DIFFERENCE OPTION, MIXELM=0) 
 =  3.212    (WHEN MIN. R.F.=1)  AT K=   2, I=   1, J=  77


 TOTAL NUMBER OF POINT SOURCES/SINKS PRESENT IN THE FLOW MODEL =    62

 MAXIMUM STEPSIZE WHICH MEETS STABILITY CRITERION OF THE SINK & SOURCE TERM
 =  110.3    (WHEN MIN. R.F.=1)  AT K=   2, I=   1, J= 120

 MAXIMUM STEPSIZE WHICH MEETS STABILITY CRITERION OF THE DISPERSION TERM
 =  20.29    (WHEN MIN. R.F.=1)  AT K=   1, I=   1, J=  31
     1 CALLS TO GCG PACKAGE FOR TRANSPORT TIME STEP   4 IN FLOW TIME STEP 160 STRESS PERIOD   1
     6 TOTAL ITERATIONS
 
 SOLVING FOR HEAD 
 FLOW MODEL IS TRANSIENT
 FLOW MODEL CONTAINS CONSTANT-HEAD CELLS


 MAXIMUM STEPSIZE DURING WHICH ANY PARTICLE CANNOT MOVE MORE THAN ONE CELL
 =  5.327    (WHEN MIN. R.F.=1)  AT K=   4, I=   1, J=  49

 MAXIMUM STEPSIZE WHICH MEETS STABILITY CRITERION OF THE ADVECTION TERM
 (FOR PURE FINITE-DIFFERENCE OPTION, MIXELM=0) 
 =  3.314    (WHEN MIN. R.F.=1)  AT K=   2, I=   1, J=  77


 TOTAL NUMBER OF POINT SOURCES/SINKS PRESENT IN THE FLOW MODEL =    62

 MAXIMUM STEPSIZE WHICH MEETS STABILITY CRITERION OF THE SINK & SOURCE TERM
 =  104.8    (WHEN MIN. R.F.=1)  AT K=   2, I=   1, J= 120

 MAXIMUM STEPSIZE WHICH MEETS STABILITY CRITERION OF THE DISPERSION TERM
 =  20.29    (WHEN MIN. R.F.=1)  AT K=   1, I=   1, J=  31
     1 CALLS TO GCG PACKAGE FOR TRANSPORT TIME STEP   5 IN FLOW TIME STEP 160 STRESS PERIOD   1
     4 TOTAL ITERATIONS
  MAXIMUM CONCENTRATION CHANGES FOR EACH ITERATION:
  MAX. CHANGE LAYER,ROW,COL MAX. CHANGE LAYER,ROW,COL MAX. CHANGE LAYER,ROW,COL MAX. CHANGE LAYER,ROW,COL MAX. CHANGE LAYER,ROW,COL
 ------------------------------------------------------------------------------------------------------------------------------------
   0.5510E-02 (  2,  1, 78)  0.2958E-04 (  2,  1, 78)  0.2431E-06 (  3,  1, 43)  0.1844E-08 (  3,  1, 79)


                                          ================================================
                                                         FROM TIME =   1600.0     TO    1610.0    

 
 SOLVING FOR HEAD 
 FLOW MODEL IS TRANSIENT
 FLOW MODEL CONTAINS CONSTANT-HEAD CELLS


 MAXIMUM STEPSIZE DURING WHICH ANY PARTICLE CANNOT MOVE MORE THAN ONE CELL
 =  5.308    (WHEN MIN. R.F.=1)  AT K=   4, I=   1, J=  49

 MAXIMUM STEPSIZE WHICH MEETS STABILITY CRITERION OF THE ADVECTION TERM
 (FOR PURE FINITE-DIFFERENCE OPTION, MIXELM=0) 
 =  3.346    (WHEN MIN. R.F.=1)  AT K=   2, I=   1, J=  77


 TOTAL NUMBER OF POINT SOURCES/SINKS PRESENT IN THE FLOW MODEL =    62

 MAXIMUM STEPSIZE WHICH MEETS STABILITY CRITERION OF THE SINK & SOURCE TERM
 =  117.7    (WHEN MIN. R.F.=1)  AT K=   2, I=   1, J= 120

 MAXIMUM STEPSIZE WHICH MEETS STABILITY CRITERION OF THE DISPERSION TERM
 =  20.29    (WHEN MIN. R.F.=1)  AT K=   1, I=   1, J=  31


     1 CALLS TO GCG PACKAGE FOR TRANSPORT TIME STEP   1 IN FLOW TIME STEP 161 STRESS PERIOD   1
     6 TOTAL ITERATIONS

 NO OUTPUT CONTROL FOR STRESS PERIOD    1   TIME STEP 161
 
 SOLVING FOR HEAD 
 FLOW MODEL IS TRANSIENT
 FLOW MODEL CONTAINS CONSTANT-HEAD CELLS


 MAXIMUM STEPSIZE DURING WHICH ANY PARTICLE CANNOT MOVE MORE THAN ONE CELL
 =  5.234    (WHEN MIN. R.F.=1)  AT K=   4, I=   1, J=  49

 MAXIMUM STEPSIZE WHICH MEETS STABILITY CRITERION OF THE ADVECTION TERM
 (FOR PURE FINITE-DIFFERENCE OPTION, MIXELM=0) 
 =  3.259    (WHEN MIN. R.F.=1)  AT K=   2, I=   1, J=  43


 TOTAL NUMBER OF POINT SOURCES/SINKS PRESENT IN THE FLOW MODEL =    62

 MAXIMUM STEPSIZE WHICH MEETS STABILITY CRITERION OF THE SINK & SOURCE TERM
 =  114.1    (WHEN MIN. R.F.=1)  AT K=   2, I=   1, J= 120

 MAXIMUM STEPSIZE WHICH MEETS STABILITY CRITERION OF THE DISPERSION TERM
 =  20.29    (WHEN MIN. R.F.=1)  AT K=   1, I=   1, J=  31
     1 CALLS TO GCG PACKAGE FOR TRANSPORT TIME STEP   2 IN FLOW TIME STEP 161 STRESS PERIOD   1
     6 TOTAL ITERATIONS
 
 SOLVING FOR HEAD 
 FLOW MODEL IS TRANSIENT
 FLOW MODEL CONTAINS CONSTANT-HEAD CELLS


 MAXIMUM STEPSIZE DURING WHICH ANY PARTICLE CANNOT MOVE MORE THAN ONE CELL
 =  5.234    (WHEN MIN. R.F.=1)  AT K=   4, I=   1, J=  49

 MAXIMUM STEPSIZE WHICH MEETS STABILITY CRITERION OF THE ADVECTION TERM
 (FOR PURE FINITE-DIFFERENCE OPTION, MIXELM=0) 
 =  3.189    (WHEN MIN. R.F.=1)  AT K=   2, I=   1, J=  43


 TOTAL NUMBER OF POINT SOURCES/SINKS PRESENT IN THE FLOW MODEL =    62

 MAXIMUM STEPSIZE WHICH MEETS STABILITY CRITERION OF THE SINK & SOURCE TERM
 =  113.9    (WHEN MIN. R.F.=1)  AT K=   2, I=   1, J= 120

 MAXIMUM STEPSIZE WHICH MEETS STABILITY CRITERION OF THE DISPERSION TERM
 =  20.29    (WHEN MIN. R.F.=1)  AT K=   1, I=   1, J=  31
     1 CALLS TO GCG PACKAGE FOR TRANSPORT TIME STEP   3 IN FLOW TIME STEP 161 STRESS PERIOD   1
     6 TOTAL ITERATIONS
 
 SOLVING FOR HEAD 
 FLOW MODEL IS TRANSIENT
 FLOW MODEL CONTAINS CONSTANT-HEAD CELLS


 MAXIMUM STEPSIZE DURING WHICH ANY PARTICLE CANNOT MOVE MORE THAN ONE CELL
 =  5.306    (WHEN MIN. R.F.=1)  AT K=   4, I=   1, J=  49

 MAXIMUM STEPSIZE WHICH MEETS STABILITY CRITERION OF THE ADVECTION TERM
 (FOR PURE FINITE-DIFFERENCE OPTION, MIXELM=0) 
 =  3.240    (WHEN MIN. R.F.=1)  AT K=   2, I=   1, J=  43


 TOTAL NUMBER OF POINT SOURCES/SINKS PRESENT IN THE FLOW MODEL =    62

 MAXIMUM STEPSIZE WHICH MEETS STABILITY CRITERION OF THE SINK & SOURCE TERM
 =  115.3    (WHEN MIN. R.F.=1)  AT K=   2, I=   1, J= 120

 MAXIMUM STEPSIZE WHICH MEETS STABILITY CRITERION OF THE DISPERSION TERM
 =  20.29    (WHEN MIN. R.F.=1)  AT K=   1, I=   1, J=  31
     1 CALLS TO GCG PACKAGE FOR TRANSPORT TIME STEP   4 IN FLOW TIME STEP 161 STRESS PERIOD   1
     6 TOTAL ITERATIONS
 
 SOLVING FOR HEAD 
 FLOW MODEL IS TRANSIENT
 FLOW MODEL CONTAINS CONSTANT-HEAD CELLS


 MAXIMUM STEPSIZE DURING WHICH ANY PARTICLE CANNOT MOVE MORE THAN ONE CELL
 =  5.420    (WHEN MIN. R.F.=1)  AT K=   5, I=   1, J=  49

 MAXIMUM STEPSIZE WHICH MEETS STABILITY CRITERION OF THE ADVECTION TERM
 (FOR PURE FINITE-DIFFERENCE OPTION, MIXELM=0) 
 =  3.346    (WHEN MIN. R.F.=1)  AT K=   2, I=   1, J=  76


 TOTAL NUMBER OF POINT SOURCES/SINKS PRESENT IN THE FLOW MODEL =    62

 MAXIMUM STEPSIZE WHICH MEETS STABILITY CRITERION OF THE SINK & SOURCE TERM
 =  107.3    (WHEN MIN. R.F.=1)  AT K=   2, I=   1, J= 120

 MAXIMUM STEPSIZE WHICH MEETS STABILITY CRITERION OF THE DISPERSION TERM
 =  20.29    (WHEN MIN. R.F.=1)  AT K=   1, I=   1, J=  31
     1 CALLS TO GCG PACKAGE FOR TRANSPORT TIME STEP   5 IN FLOW TIME STEP 161 STRESS PERIOD   1
     3 TOTAL ITERATIONS
  MAXIMUM CONCENTRATION CHANGES FOR EACH ITERATION:
  MAX. CHANGE LAYER,ROW,COL MAX. CHANGE LAYER,ROW,COL MAX. CHANGE LAYER,ROW,COL MAX. CHANGE LAYER,ROW,COL MAX. CHANGE LAYER,ROW,COL
 ------------------------------------------------------------------------------------------------------------------------------------
   0.2248E-02 (  2,  1, 77)  0.6821E-05 (  2,  1, 77)  0.2540E-07 (  3,  1, 74)


                                          ================================================
                                                         FROM TIME =   1610.0     TO    1620.0    

 
 SOLVING FOR HEAD 
 FLOW MODEL IS TRANSIENT
 FLOW MODEL CONTAINS CONSTANT-HEAD CELLS


 MAXIMUM STEPSIZE DURING WHICH ANY PARTICLE CANNOT MOVE MORE THAN ONE CELL
 =  5.423    (WHEN MIN. R.F.=1)  AT K=   5, I=   1, J=  49

 MAXIMUM STEPSIZE WHICH MEETS STABILITY CRITERION OF THE ADVECTION TERM
 (FOR PURE FINITE-DIFFERENCE OPTION, MIXELM=0) 
 =  3.348    (WHEN MIN. R.F.=1)  AT K=   2, I=   1, J=  76


 TOTAL NUMBER OF POINT SOURCES/SINKS PRESENT IN THE FLOW MODEL =    62

 MAXIMUM STEPSIZE WHICH MEETS STABILITY CRITERION OF THE SINK & SOURCE TERM
 =  125.2    (WHEN MIN. R.F.=1)  AT K=   2, I=   1, J= 120

 MAXIMUM STEPSIZE WHICH MEETS STABILITY CRITERION OF THE DISPERSION TERM
 =  20.29    (WHEN MIN. R.F.=1)  AT K=   1, I=   1, J=  31


     1 CALLS TO GCG PACKAGE FOR TRANSPORT TIME STEP   1 IN FLOW TIME STEP 162 STRESS PERIOD   1
     6 TOTAL ITERATIONS

 NO OUTPUT CONTROL FOR STRESS PERIOD    1   TIME STEP 162
 
 SOLVING FOR HEAD 
 FLOW MODEL IS TRANSIENT
 FLOW MODEL CONTAINS CONSTANT-HEAD CELLS


 MAXIMUM STEPSIZE DURING WHICH ANY PARTICLE CANNOT MOVE MORE THAN ONE CELL
 =  5.497    (WHEN MIN. R.F.=1)  AT K=   5, I=   1, J=  49

 MAXIMUM STEPSIZE WHICH MEETS STABILITY CRITERION OF THE ADVECTION TERM
 (FOR PURE FINITE-DIFFERENCE OPTION, MIXELM=0) 
 =  3.423    (WHEN MIN. R.F.=1)  AT K=   2, I=   1, J=  76


 TOTAL NUMBER OF POINT SOURCES/SINKS PRESENT IN THE FLOW MODEL =    62

 MAXIMUM STEPSIZE WHICH MEETS STABILITY CRITERION OF THE SINK & SOURCE TERM
 =  122.4    (WHEN MIN. R.F.=1)  AT K=   2, I=   1, J= 120

 MAXIMUM STEPSIZE WHICH MEETS STABILITY CRITERION OF THE DISPERSION TERM
 =  20.29    (WHEN MIN. R.F.=1)  AT K=   1, I=   1, J=  31
     1 CALLS TO GCG PACKAGE FOR TRANSPORT TIME STEP   2 IN FLOW TIME STEP 162 STRESS PERIOD   1
     6 TOTAL ITERATIONS
 
 SOLVING FOR HEAD 
 FLOW MODEL IS TRANSIENT
 FLOW MODEL CONTAINS CONSTANT-HEAD CELLS


 MAXIMUM STEPSIZE DURING WHICH ANY PARTICLE CANNOT MOVE MORE THAN ONE CELL
 =  5.612    (WHEN MIN. R.F.=1)  AT K=   5, I=   1, J=  49

 MAXIMUM STEPSIZE WHICH MEETS STABILITY CRITERION OF THE ADVECTION TERM
 (FOR PURE FINITE-DIFFERENCE OPTION, MIXELM=0) 
 =  3.299    (WHEN MIN. R.F.=1)  AT K=   2, I=   1, J=  44


 TOTAL NUMBER OF POINT SOURCES/SINKS PRESENT IN THE FLOW MODEL =    62

 MAXIMUM STEPSIZE WHICH MEETS STABILITY CRITERION OF THE SINK & SOURCE TERM
 =  120.5    (WHEN MIN. R.F.=1)  AT K=   2, I=   1, J= 120

 MAXIMUM STEPSIZE WHICH MEETS STABILITY CRITERION OF THE DISPERSION TERM
 =  20.29    (WHEN MIN. R.F.=1)  AT K=   1, I=   1, J=  31
     1 CALLS TO GCG PACKAGE FOR TRANSPORT TIME STEP   3 IN FLOW TIME STEP 162 STRESS PERIOD   1
     6 TOTAL ITERATIONS
 
 SOLVING FOR HEAD 
 FLOW MODEL IS TRANSIENT
 FLOW MODEL CONTAINS CONSTANT-HEAD CELLS


 MAXIMUM STEPSIZE DURING WHICH ANY PARTICLE CANNOT MOVE MORE THAN ONE CELL
 =  5.703    (WHEN MIN. R.F.=1)  AT K=   6, I=   1, J=  49

 MAXIMUM STEPSIZE WHICH MEETS STABILITY CRITERION OF THE ADVECTION TERM
 (FOR PURE FINITE-DIFFERENCE OPTION, MIXELM=0) 
 =  3.264    (WHEN MIN. R.F.=1)  AT K=   2, I=   1, J=  44


 TOTAL NUMBER OF POINT SOURCES/SINKS PRESENT IN THE FLOW MODEL =    62

 MAXIMUM STEPSIZE WHICH MEETS STABILITY CRITERION OF THE SINK & SOURCE TERM
 =  119.1    (WHEN MIN. R.F.=1)  AT K=   2, I=   1, J= 120

 MAXIMUM STEPSIZE WHICH MEETS STABILITY CRITERION OF THE DISPERSION TERM
 =  20.29    (WHEN MIN. R.F.=1)  AT K=   1, I=   1, J=  31
     1 CALLS TO GCG PACKAGE FOR TRANSPORT TIME STEP   4 IN FLOW TIME STEP 162 STRESS PERIOD   1
     6 TOTAL ITERATIONS
  MAXIMUM CONCENTRATION CHANGES FOR EACH ITERATION:
  MAX. CHANGE LAYER,ROW,COL MAX. CHANGE LAYER,ROW,COL MAX. CHANGE LAYER,ROW,COL MAX. CHANGE LAYER,ROW,COL MAX. CHANGE LAYER,ROW,COL
 ------------------------------------------------------------------------------------------------------------------------------------
   0.3575E-01 (  2,  1, 84)  0.1570E-02 (  2,  1, 75)  0.6610E-04 (  3,  1, 75)  0.4148E-05 (  3,  1, 47)  0.1734E-06 (  4,  1, 74)
   0.9274E-08 (  5,  1, 74)


                                          ================================================
                                                         FROM TIME =   1620.0     TO    1630.0    

 
 SOLVING FOR HEAD 
 FLOW MODEL IS TRANSIENT
 FLOW MODEL CONTAINS CONSTANT-HEAD CELLS


 MAXIMUM STEPSIZE DURING WHICH ANY PARTICLE CANNOT MOVE MORE THAN ONE CELL
 =  5.786    (WHEN MIN. R.F.=1)  AT K=   6, I=   1, J=  49

 MAXIMUM STEPSIZE WHICH MEETS STABILITY CRITERION OF THE ADVECTION TERM
 (FOR PURE FINITE-DIFFERENCE OPTION, MIXELM=0) 
 =  3.338    (WHEN MIN. R.F.=1)  AT K=   2, I=   1, J=  44


 TOTAL NUMBER OF POINT SOURCES/SINKS PRESENT IN THE FLOW MODEL =    62

 MAXIMUM STEPSIZE WHICH MEETS STABILITY CRITERION OF THE SINK & SOURCE TERM
 =  120.2    (WHEN MIN. R.F.=1)  AT K=   2, I=   1, J= 120

 MAXIMUM STEPSIZE WHICH MEETS STABILITY CRITERION OF THE DISPERSION TERM
 =  20.29    (WHEN MIN. R.F.=1)  AT K=   1, I=   1, J=  31


     1 CALLS TO GCG PACKAGE FOR TRANSPORT TIME STEP   1 IN FLOW TIME STEP 163 STRESS PERIOD   1
     6 TOTAL ITERATIONS

 NO OUTPUT CONTROL FOR STRESS PERIOD    1   TIME STEP 163
 
 SOLVING FOR HEAD 
 FLOW MODEL IS TRANSIENT
 FLOW MODEL CONTAINS CONSTANT-HEAD CELLS


 MAXIMUM STEPSIZE DURING WHICH ANY PARTICLE CANNOT MOVE MORE THAN ONE CELL
 =  5.872    (WHEN MIN. R.F.=1)  AT K=   7, I=   1, J=  49

 MAXIMUM STEPSIZE WHICH MEETS STABILITY CRITERION OF THE ADVECTION TERM
 (FOR PURE FINITE-DIFFERENCE OPTION, MIXELM=0) 
 =  3.553    (WHEN MIN. R.F.=1)  AT K=   2, I=   1, J=  44


 TOTAL NUMBER OF POINT SOURCES/SINKS PRESENT IN THE FLOW MODEL =    62

 MAXIMUM STEPSIZE WHICH MEETS STABILITY CRITERION OF THE SINK & SOURCE TERM
 =  121.4    (WHEN MIN. R.F.=1)  AT K=   2, I=   1, J= 120

 MAXIMUM STEPSIZE WHICH MEETS STABILITY CRITERION OF THE DISPERSION TERM
 =  20.29    (WHEN MIN. R.F.=1)  AT K=   1, I=   1, J=  31
     1 CALLS TO GCG PACKAGE FOR TRANSPORT TIME STEP   2 IN FLOW TIME STEP 163 STRESS PERIOD   1
     6 TOTAL ITERATIONS
 
 SOLVING FOR HEAD 
 FLOW MODEL IS TRANSIENT
 FLOW MODEL CONTAINS CONSTANT-HEAD CELLS


 MAXIMUM STEPSIZE DURING WHICH ANY PARTICLE CANNOT MOVE MORE THAN ONE CELL
 =  5.934    (WHEN MIN. R.F.=1)  AT K=   7, I=   1, J=  49

 MAXIMUM STEPSIZE WHICH MEETS STABILITY CRITERION OF THE ADVECTION TERM
 (FOR PURE FINITE-DIFFERENCE OPTION, MIXELM=0) 
 =  3.625    (WHEN MIN. R.F.=1)  AT K=   2, I=   1, J=  45


 TOTAL NUMBER OF POINT SOURCES/SINKS PRESENT IN THE FLOW MODEL =    62

 MAXIMUM STEPSIZE WHICH MEETS STABILITY CRITERION OF THE SINK & SOURCE TERM
 =  122.4    (WHEN MIN. R.F.=1)  AT K=   2, I=   1, J= 120

 MAXIMUM STEPSIZE WHICH MEETS STABILITY CRITERION OF THE DISPERSION TERM
 =  20.29    (WHEN MIN. R.F.=1)  AT K=   1, I=   1, J=  31
     1 CALLS TO GCG PACKAGE FOR TRANSPORT TIME STEP   3 IN FLOW TIME STEP 163 STRESS PERIOD   1
     6 TOTAL ITERATIONS
 
 SOLVING FOR HEAD 
 FLOW MODEL IS TRANSIENT
 FLOW MODEL CONTAINS CONSTANT-HEAD CELLS


 MAXIMUM STEPSIZE DURING WHICH ANY PARTICLE CANNOT MOVE MORE THAN ONE CELL
 =  6.033    (WHEN MIN. R.F.=1)  AT K=   7, I=   1, J=  49

 MAXIMUM STEPSIZE WHICH MEETS STABILITY CRITERION OF THE ADVECTION TERM
 (FOR PURE FINITE-DIFFERENCE OPTION, MIXELM=0) 
 =  3.427    (WHEN MIN. R.F.=1)  AT K=   2, I=   1, J=  45


 TOTAL NUMBER OF POINT SOURCES/SINKS PRESENT IN THE FLOW MODEL =    62

 MAXIMUM STEPSIZE WHICH MEETS STABILITY CRITERION OF THE SINK & SOURCE TERM
 =  121.3    (WHEN MIN. R.F.=1)  AT K=   2, I=   1, J= 120

 MAXIMUM STEPSIZE WHICH MEETS STABILITY CRITERION OF THE DISPERSION TERM
 =  20.29    (WHEN MIN. R.F.=1)  AT K=   1, I=   1, J=  31
     1 CALLS TO GCG PACKAGE FOR TRANSPORT TIME STEP   4 IN FLOW TIME STEP 163 STRESS PERIOD   1
     6 TOTAL ITERATIONS
  MAXIMUM CONCENTRATION CHANGES FOR EACH ITERATION:
  MAX. CHANGE LAYER,ROW,COL MAX. CHANGE LAYER,ROW,COL MAX. CHANGE LAYER,ROW,COL MAX. CHANGE LAYER,ROW,COL MAX. CHANGE LAYER,ROW,COL
 ------------------------------------------------------------------------------------------------------------------------------------
   0.3649E-01 (  2,  1, 83)  0.1056E-02 (  3,  1, 78)  0.5085E-04 (  2,  1, 77)  0.2745E-05 (  3,  1, 77)  0.1285E-06 (  3,  1, 78)
   0.7206E-08 (  4,  1, 42)


                                          ================================================
                                                         FROM TIME =   1630.0     TO    1640.0    

 
 SOLVING FOR HEAD 
 FLOW MODEL IS TRANSIENT
 FLOW MODEL CONTAINS CONSTANT-HEAD CELLS


 MAXIMUM STEPSIZE DURING WHICH ANY PARTICLE CANNOT MOVE MORE THAN ONE CELL
 =  6.077    (WHEN MIN. R.F.=1)  AT K=   8, I=   1, J=  49

 MAXIMUM STEPSIZE WHICH MEETS STABILITY CRITERION OF THE ADVECTION TERM
 (FOR PURE FINITE-DIFFERENCE OPTION, MIXELM=0) 
 =  3.389    (WHEN MIN. R.F.=1)  AT K=   2, I=   1, J=  45


 TOTAL NUMBER OF POINT SOURCES/SINKS PRESENT IN THE FLOW MODEL =    62

 MAXIMUM STEPSIZE WHICH MEETS STABILITY CRITERION OF THE SINK & SOURCE TERM
 =  118.2    (WHEN MIN. R.F.=1)  AT K=   2, I=   1, J= 120

 MAXIMUM STEPSIZE WHICH MEETS STABILITY CRITERION OF THE DISPERSION TERM
 =  20.29    (WHEN MIN. R.F.=1)  AT K=   1, I=   1, J=  31


     1 CALLS TO GCG PACKAGE FOR TRANSPORT TIME STEP   1 IN FLOW TIME STEP 164 STRESS PERIOD   1
     6 TOTAL ITERATIONS

 NO OUTPUT CONTROL FOR STRESS PERIOD    1   TIME STEP 164
 
 SOLVING FOR HEAD 
 FLOW MODEL IS TRANSIENT
 FLOW MODEL CONTAINS CONSTANT-HEAD CELLS


 MAXIMUM STEPSIZE DURING WHICH ANY PARTICLE CANNOT MOVE MORE THAN ONE CELL
 =  6.156    (WHEN MIN. R.F.=1)  AT K=   8, I=   1, J=  49

 MAXIMUM STEPSIZE WHICH MEETS STABILITY CRITERION OF THE ADVECTION TERM
 (FOR PURE FINITE-DIFFERENCE OPTION, MIXELM=0) 
 =  3.454    (WHEN MIN. R.F.=1)  AT K=   2, I=   1, J=  45


 TOTAL NUMBER OF POINT SOURCES/SINKS PRESENT IN THE FLOW MODEL =    62

 MAXIMUM STEPSIZE WHICH MEETS STABILITY CRITERION OF THE SINK & SOURCE TERM
 =  116.6    (WHEN MIN. R.F.=1)  AT K=   2, I=   1, J= 120

 MAXIMUM STEPSIZE WHICH MEETS STABILITY CRITERION OF THE DISPERSION TERM
 =  20.29    (WHEN MIN. R.F.=1)  AT K=   1, I=   1, J=  31
     1 CALLS TO GCG PACKAGE FOR TRANSPORT TIME STEP   2 IN FLOW TIME STEP 164 STRESS PERIOD   1
     6 TOTAL ITERATIONS
 
 SOLVING FOR HEAD 
 FLOW MODEL IS TRANSIENT
 FLOW MODEL CONTAINS CONSTANT-HEAD CELLS


 MAXIMUM STEPSIZE DURING WHICH ANY PARTICLE CANNOT MOVE MORE THAN ONE CELL
 =  6.242    (WHEN MIN. R.F.=1)  AT K=   9, I=   1, J=  49

 MAXIMUM STEPSIZE WHICH MEETS STABILITY CRITERION OF THE ADVECTION TERM
 (FOR PURE FINITE-DIFFERENCE OPTION, MIXELM=0) 
 =  3.340    (WHEN MIN. R.F.=1)  AT K=   2, I=   1, J=  81


 TOTAL NUMBER OF POINT SOURCES/SINKS PRESENT IN THE FLOW MODEL =    62

 MAXIMUM STEPSIZE WHICH MEETS STABILITY CRITERION OF THE SINK & SOURCE TERM
 =  119.2    (WHEN MIN. R.F.=1)  AT K=   2, I=   1, J= 120

 MAXIMUM STEPSIZE WHICH MEETS STABILITY CRITERION OF THE DISPERSION TERM
 =  20.29    (WHEN MIN. R.F.=1)  AT K=   1, I=   1, J=  31
     1 CALLS TO GCG PACKAGE FOR TRANSPORT TIME STEP   3 IN FLOW TIME STEP 164 STRESS PERIOD   1
     6 TOTAL ITERATIONS
 
 SOLVING FOR HEAD 
 FLOW MODEL IS TRANSIENT
 FLOW MODEL CONTAINS CONSTANT-HEAD CELLS


 MAXIMUM STEPSIZE DURING WHICH ANY PARTICLE CANNOT MOVE MORE THAN ONE CELL
 =  6.148    (WHEN MIN. R.F.=1)  AT K=   2, I=   1, J=  82

 MAXIMUM STEPSIZE WHICH MEETS STABILITY CRITERION OF THE ADVECTION TERM
 (FOR PURE FINITE-DIFFERENCE OPTION, MIXELM=0) 
 =  3.366    (WHEN MIN. R.F.=1)  AT K=   2, I=   1, J=  81


 TOTAL NUMBER OF POINT SOURCES/SINKS PRESENT IN THE FLOW MODEL =    62

 MAXIMUM STEPSIZE WHICH MEETS STABILITY CRITERION OF THE SINK & SOURCE TERM
 =  118.7    (WHEN MIN. R.F.=1)  AT K=   2, I=   1, J= 120

 MAXIMUM STEPSIZE WHICH MEETS STABILITY CRITERION OF THE DISPERSION TERM
 =  20.29    (WHEN MIN. R.F.=1)  AT K=   1, I=   1, J=  31
     1 CALLS TO GCG PACKAGE FOR TRANSPORT TIME STEP   4 IN FLOW TIME STEP 164 STRESS PERIOD   1
     6 TOTAL ITERATIONS
  MAXIMUM CONCENTRATION CHANGES FOR EACH ITERATION:
  MAX. CHANGE LAYER,ROW,COL MAX. CHANGE LAYER,ROW,COL MAX. CHANGE LAYER,ROW,COL MAX. CHANGE LAYER,ROW,COL MAX. CHANGE LAYER,ROW,COL
 ------------------------------------------------------------------------------------------------------------------------------------
   0.3711E-01 (  2,  1, 82)  0.9913E-03 (  2,  1, 46)  0.6867E-04 (  3,  1, 80)  0.2684E-05 (  4,  1, 80)  0.1469E-06 (  3,  1, 77)
   0.7527E-08 (  4,  1, 77)


                                          ================================================
                                                         FROM TIME =   1640.0     TO    1650.0    

 
 SOLVING FOR HEAD 
 FLOW MODEL IS TRANSIENT
 FLOW MODEL CONTAINS CONSTANT-HEAD CELLS


 MAXIMUM STEPSIZE DURING WHICH ANY PARTICLE CANNOT MOVE MORE THAN ONE CELL
 =  6.052    (WHEN MIN. R.F.=1)  AT K=   2, I=   1, J=  82

 MAXIMUM STEPSIZE WHICH MEETS STABILITY CRITERION OF THE ADVECTION TERM
 (FOR PURE FINITE-DIFFERENCE OPTION, MIXELM=0) 
 =  3.576    (WHEN MIN. R.F.=1)  AT K=   2, I=   1, J=  80


 TOTAL NUMBER OF POINT SOURCES/SINKS PRESENT IN THE FLOW MODEL =    62

 MAXIMUM STEPSIZE WHICH MEETS STABILITY CRITERION OF THE SINK & SOURCE TERM
 =  118.4    (WHEN MIN. R.F.=1)  AT K=   2, I=   1, J= 120

 MAXIMUM STEPSIZE WHICH MEETS STABILITY CRITERION OF THE DISPERSION TERM
 =  20.29    (WHEN MIN. R.F.=1)  AT K=   1, I=   1, J=  31


     1 CALLS TO GCG PACKAGE FOR TRANSPORT TIME STEP   1 IN FLOW TIME STEP 165 STRESS PERIOD   1
     6 TOTAL ITERATIONS

 NO OUTPUT CONTROL FOR STRESS PERIOD    1   TIME STEP 165
 
 SOLVING FOR HEAD 
 FLOW MODEL IS TRANSIENT
 FLOW MODEL CONTAINS CONSTANT-HEAD CELLS


 MAXIMUM STEPSIZE DURING WHICH ANY PARTICLE CANNOT MOVE MORE THAN ONE CELL
 =  6.028    (WHEN MIN. R.F.=1)  AT K=   3, I=   1, J=  73

 MAXIMUM STEPSIZE WHICH MEETS STABILITY CRITERION OF THE ADVECTION TERM
 (FOR PURE FINITE-DIFFERENCE OPTION, MIXELM=0) 
 =  3.227    (WHEN MIN. R.F.=1)  AT K=   2, I=   1, J=  80


 TOTAL NUMBER OF POINT SOURCES/SINKS PRESENT IN THE FLOW MODEL =    62

 MAXIMUM STEPSIZE WHICH MEETS STABILITY CRITERION OF THE SINK & SOURCE TERM
 =  116.2    (WHEN MIN. R.F.=1)  AT K=   2, I=   1, J= 120

 MAXIMUM STEPSIZE WHICH MEETS STABILITY CRITERION OF THE DISPERSION TERM
 =  20.29    (WHEN MIN. R.F.=1)  AT K=   1, I=   1, J=  31
     1 CALLS TO GCG PACKAGE FOR TRANSPORT TIME STEP   2 IN FLOW TIME STEP 165 STRESS PERIOD   1
     6 TOTAL ITERATIONS
 
 SOLVING FOR HEAD 
 FLOW MODEL IS TRANSIENT
 FLOW MODEL CONTAINS CONSTANT-HEAD CELLS


 MAXIMUM STEPSIZE DURING WHICH ANY PARTICLE CANNOT MOVE MORE THAN ONE CELL
 =  5.594    (WHEN MIN. R.F.=1)  AT K=   3, I=   1, J=  73

 MAXIMUM STEPSIZE WHICH MEETS STABILITY CRITERION OF THE ADVECTION TERM
 (FOR PURE FINITE-DIFFERENCE OPTION, MIXELM=0) 
 =  3.081    (WHEN MIN. R.F.=1)  AT K=   2, I=   1, J=  80


 TOTAL NUMBER OF POINT SOURCES/SINKS PRESENT IN THE FLOW MODEL =    62

 MAXIMUM STEPSIZE WHICH MEETS STABILITY CRITERION OF THE SINK & SOURCE TERM
 =  115.0    (WHEN MIN. R.F.=1)  AT K=   2, I=   1, J= 120

 MAXIMUM STEPSIZE WHICH MEETS STABILITY CRITERION OF THE DISPERSION TERM
 =  20.29    (WHEN MIN. R.F.=1)  AT K=   1, I=   1, J=  31
     1 CALLS TO GCG PACKAGE FOR TRANSPORT TIME STEP   3 IN FLOW TIME STEP 165 STRESS PERIOD   1
     6 TOTAL ITERATIONS
 
 SOLVING FOR HEAD 
 FLOW MODEL IS TRANSIENT
 FLOW MODEL CONTAINS CONSTANT-HEAD CELLS


 MAXIMUM STEPSIZE DURING WHICH ANY PARTICLE CANNOT MOVE MORE THAN ONE CELL
 =  5.323    (WHEN MIN. R.F.=1)  AT K=   3, I=   1, J=  73

 MAXIMUM STEPSIZE WHICH MEETS STABILITY CRITERION OF THE ADVECTION TERM
 (FOR PURE FINITE-DIFFERENCE OPTION, MIXELM=0) 
 =  3.114    (WHEN MIN. R.F.=1)  AT K=   2, I=   1, J=  80


 TOTAL NUMBER OF POINT SOURCES/SINKS PRESENT IN THE FLOW MODEL =    62

 MAXIMUM STEPSIZE WHICH MEETS STABILITY CRITERION OF THE SINK & SOURCE TERM
 =  117.7    (WHEN MIN. R.F.=1)  AT K=   2, I=   1, J= 120

 MAXIMUM STEPSIZE WHICH MEETS STABILITY CRITERION OF THE DISPERSION TERM
 =  20.29    (WHEN MIN. R.F.=1)  AT K=   1, I=   1, J=  31
     1 CALLS TO GCG PACKAGE FOR TRANSPORT TIME STEP   4 IN FLOW TIME STEP 165 STRESS PERIOD   1
     6 TOTAL ITERATIONS
 
 SOLVING FOR HEAD 
 FLOW MODEL IS TRANSIENT
 FLOW MODEL CONTAINS CONSTANT-HEAD CELLS


 MAXIMUM STEPSIZE DURING WHICH ANY PARTICLE CANNOT MOVE MORE THAN ONE CELL
 =  5.164    (WHEN MIN. R.F.=1)  AT K=   3, I=   1, J=  73

 MAXIMUM STEPSIZE WHICH MEETS STABILITY CRITERION OF THE ADVECTION TERM
 (FOR PURE FINITE-DIFFERENCE OPTION, MIXELM=0) 
 =  3.350    (WHEN MIN. R.F.=1)  AT K=   2, I=   1, J=  80


 TOTAL NUMBER OF POINT SOURCES/SINKS PRESENT IN THE FLOW MODEL =    62

 MAXIMUM STEPSIZE WHICH MEETS STABILITY CRITERION OF THE SINK & SOURCE TERM
 =  109.1    (WHEN MIN. R.F.=1)  AT K=   2, I=   1, J= 120

 MAXIMUM STEPSIZE WHICH MEETS STABILITY CRITERION OF THE DISPERSION TERM
 =  20.29    (WHEN MIN. R.F.=1)  AT K=   1, I=   1, J=  31
     1 CALLS TO GCG PACKAGE FOR TRANSPORT TIME STEP   5 IN FLOW TIME STEP 165 STRESS PERIOD   1
     3 TOTAL ITERATIONS
  MAXIMUM CONCENTRATION CHANGES FOR EACH ITERATION:
  MAX. CHANGE LAYER,ROW,COL MAX. CHANGE LAYER,ROW,COL MAX. CHANGE LAYER,ROW,COL MAX. CHANGE LAYER,ROW,COL MAX. CHANGE LAYER,ROW,COL
 ------------------------------------------------------------------------------------------------------------------------------------
   0.9677E-03 (  2,  1, 81)  0.9503E-06 (  2,  1, 79)  0.1833E-08 (  3,  1, 79)


                                          ================================================
                                                         FROM TIME =   1650.0     TO    1660.0    

 
 SOLVING FOR HEAD 
 FLOW MODEL IS TRANSIENT
 FLOW MODEL CONTAINS CONSTANT-HEAD CELLS


 MAXIMUM STEPSIZE DURING WHICH ANY PARTICLE CANNOT MOVE MORE THAN ONE CELL
 =  5.161    (WHEN MIN. R.F.=1)  AT K=   3, I=   1, J=  73

 MAXIMUM STEPSIZE WHICH MEETS STABILITY CRITERION OF THE ADVECTION TERM
 (FOR PURE FINITE-DIFFERENCE OPTION, MIXELM=0) 
 =  3.360    (WHEN MIN. R.F.=1)  AT K=   2, I=   1, J=  80


 TOTAL NUMBER OF POINT SOURCES/SINKS PRESENT IN THE FLOW MODEL =    62

 MAXIMUM STEPSIZE WHICH MEETS STABILITY CRITERION OF THE SINK & SOURCE TERM
 =  125.7    (WHEN MIN. R.F.=1)  AT K=   2, I=   1, J= 120

 MAXIMUM STEPSIZE WHICH MEETS STABILITY CRITERION OF THE DISPERSION TERM
 =  20.29    (WHEN MIN. R.F.=1)  AT K=   1, I=   1, J=  31


     1 CALLS TO GCG PACKAGE FOR TRANSPORT TIME STEP   1 IN FLOW TIME STEP 166 STRESS PERIOD   1
     6 TOTAL ITERATIONS

 NO OUTPUT CONTROL FOR STRESS PERIOD    1   TIME STEP 166
 
 SOLVING FOR HEAD 
 FLOW MODEL IS TRANSIENT
 FLOW MODEL CONTAINS CONSTANT-HEAD CELLS


 MAXIMUM STEPSIZE DURING WHICH ANY PARTICLE CANNOT MOVE MORE THAN ONE CELL
 =  5.016    (WHEN MIN. R.F.=1)  AT K=   4, I=   1, J=  73

 MAXIMUM STEPSIZE WHICH MEETS STABILITY CRITERION OF THE ADVECTION TERM
 (FOR PURE FINITE-DIFFERENCE OPTION, MIXELM=0) 
 =  3.219    (WHEN MIN. R.F.=1)  AT K=   2, I=   1, J=  79


 TOTAL NUMBER OF POINT SOURCES/SINKS PRESENT IN THE FLOW MODEL =    62

 MAXIMUM STEPSIZE WHICH MEETS STABILITY CRITERION OF THE SINK & SOURCE TERM
 =  119.7    (WHEN MIN. R.F.=1)  AT K=   2, I=   1, J= 120

 MAXIMUM STEPSIZE WHICH MEETS STABILITY CRITERION OF THE DISPERSION TERM
 =  20.29    (WHEN MIN. R.F.=1)  AT K=   1, I=   1, J=  31
     1 CALLS TO GCG PACKAGE FOR TRANSPORT TIME STEP   2 IN FLOW TIME STEP 166 STRESS PERIOD   1
     6 TOTAL ITERATIONS
 
 SOLVING FOR HEAD 
 FLOW MODEL IS TRANSIENT
 FLOW MODEL CONTAINS CONSTANT-HEAD CELLS


 MAXIMUM STEPSIZE DURING WHICH ANY PARTICLE CANNOT MOVE MORE THAN ONE CELL
 =  4.914    (WHEN MIN. R.F.=1)  AT K=   4, I=   1, J=  73

 MAXIMUM STEPSIZE WHICH MEETS STABILITY CRITERION OF THE ADVECTION TERM
 (FOR PURE FINITE-DIFFERENCE OPTION, MIXELM=0) 
 =  3.071    (WHEN MIN. R.F.=1)  AT K=   2, I=   1, J=  79


 TOTAL NUMBER OF POINT SOURCES/SINKS PRESENT IN THE FLOW MODEL =    62

 MAXIMUM STEPSIZE WHICH MEETS STABILITY CRITERION OF THE SINK & SOURCE TERM
 =  118.3    (WHEN MIN. R.F.=1)  AT K=   2, I=   1, J= 120

 MAXIMUM STEPSIZE WHICH MEETS STABILITY CRITERION OF THE DISPERSION TERM
 =  20.29    (WHEN MIN. R.F.=1)  AT K=   1, I=   1, J=  31
     1 CALLS TO GCG PACKAGE FOR TRANSPORT TIME STEP   3 IN FLOW TIME STEP 166 STRESS PERIOD   1
     6 TOTAL ITERATIONS
 
 SOLVING FOR HEAD 
 FLOW MODEL IS TRANSIENT
 FLOW MODEL CONTAINS CONSTANT-HEAD CELLS


 MAXIMUM STEPSIZE DURING WHICH ANY PARTICLE CANNOT MOVE MORE THAN ONE CELL
 =  4.889    (WHEN MIN. R.F.=1)  AT K=   4, I=   1, J=  73

 MAXIMUM STEPSIZE WHICH MEETS STABILITY CRITERION OF THE ADVECTION TERM
 (FOR PURE FINITE-DIFFERENCE OPTION, MIXELM=0) 
 =  3.060    (WHEN MIN. R.F.=1)  AT K=   2, I=   1, J=  79


 TOTAL NUMBER OF POINT SOURCES/SINKS PRESENT IN THE FLOW MODEL =    62

 MAXIMUM STEPSIZE WHICH MEETS STABILITY CRITERION OF THE SINK & SOURCE TERM
 =  119.8    (WHEN MIN. R.F.=1)  AT K=   2, I=   1, J= 120

 MAXIMUM STEPSIZE WHICH MEETS STABILITY CRITERION OF THE DISPERSION TERM
 =  20.29    (WHEN MIN. R.F.=1)  AT K=   1, I=   1, J=  31
     1 CALLS TO GCG PACKAGE FOR TRANSPORT TIME STEP   4 IN FLOW TIME STEP 166 STRESS PERIOD   1
     6 TOTAL ITERATIONS
 
 SOLVING FOR HEAD 
 FLOW MODEL IS TRANSIENT
 FLOW MODEL CONTAINS CONSTANT-HEAD CELLS


 MAXIMUM STEPSIZE DURING WHICH ANY PARTICLE CANNOT MOVE MORE THAN ONE CELL
 =  4.937    (WHEN MIN. R.F.=1)  AT K=   4, I=   1, J=  73

 MAXIMUM STEPSIZE WHICH MEETS STABILITY CRITERION OF THE ADVECTION TERM
 (FOR PURE FINITE-DIFFERENCE OPTION, MIXELM=0) 
 =  3.172    (WHEN MIN. R.F.=1)  AT K=   2, I=   1, J=  79


 TOTAL NUMBER OF POINT SOURCES/SINKS PRESENT IN THE FLOW MODEL =    62

 MAXIMUM STEPSIZE WHICH MEETS STABILITY CRITERION OF THE SINK & SOURCE TERM
 =  112.9    (WHEN MIN. R.F.=1)  AT K=   2, I=   1, J= 120

 MAXIMUM STEPSIZE WHICH MEETS STABILITY CRITERION OF THE DISPERSION TERM
 =  20.29    (WHEN MIN. R.F.=1)  AT K=   1, I=   1, J=  31
     1 CALLS TO GCG PACKAGE FOR TRANSPORT TIME STEP   5 IN FLOW TIME STEP 166 STRESS PERIOD   1
     4 TOTAL ITERATIONS
  MAXIMUM CONCENTRATION CHANGES FOR EACH ITERATION:
  MAX. CHANGE LAYER,ROW,COL MAX. CHANGE LAYER,ROW,COL MAX. CHANGE LAYER,ROW,COL MAX. CHANGE LAYER,ROW,COL MAX. CHANGE LAYER,ROW,COL
 ------------------------------------------------------------------------------------------------------------------------------------
   0.3906E-02 (  2,  1, 80)  0.1357E-04 (  2,  1, 80)  0.1083E-06 (  3,  1, 78)  0.5549E-09 (  4,  1, 78)


                                          ================================================
                                                         FROM TIME =   1660.0     TO    1670.0    

 
 SOLVING FOR HEAD 
 FLOW MODEL IS TRANSIENT
 FLOW MODEL CONTAINS CONSTANT-HEAD CELLS


 MAXIMUM STEPSIZE DURING WHICH ANY PARTICLE CANNOT MOVE MORE THAN ONE CELL
 =  4.946    (WHEN MIN. R.F.=1)  AT K=   4, I=   1, J=  73

 MAXIMUM STEPSIZE WHICH MEETS STABILITY CRITERION OF THE ADVECTION TERM
 (FOR PURE FINITE-DIFFERENCE OPTION, MIXELM=0) 
 =  3.198    (WHEN MIN. R.F.=1)  AT K=   2, I=   1, J=  79


 TOTAL NUMBER OF POINT SOURCES/SINKS PRESENT IN THE FLOW MODEL =    62

 MAXIMUM STEPSIZE WHICH MEETS STABILITY CRITERION OF THE SINK & SOURCE TERM
 =  134.4    (WHEN MIN. R.F.=1)  AT K=   2, I=   1, J= 120

 MAXIMUM STEPSIZE WHICH MEETS STABILITY CRITERION OF THE DISPERSION TERM
 =  20.29    (WHEN MIN. R.F.=1)  AT K=   1, I=   1, J=  31


     1 CALLS TO GCG PACKAGE FOR TRANSPORT TIME STEP   1 IN FLOW TIME STEP 167 STRESS PERIOD   1
     6 TOTAL ITERATIONS

 NO OUTPUT CONTROL FOR STRESS PERIOD    1   TIME STEP 167
 
 SOLVING FOR HEAD 
 FLOW MODEL IS TRANSIENT
 FLOW MODEL CONTAINS CONSTANT-HEAD CELLS


 MAXIMUM STEPSIZE DURING WHICH ANY PARTICLE CANNOT MOVE MORE THAN ONE CELL
 =  5.053    (WHEN MIN. R.F.=1)  AT K=   4, I=   1, J=  73

 MAXIMUM STEPSIZE WHICH MEETS STABILITY CRITERION OF THE ADVECTION TERM
 (FOR PURE FINITE-DIFFERENCE OPTION, MIXELM=0) 
 =  3.459    (WHEN MIN. R.F.=1)  AT K=   2, I=   1, J=  40


 TOTAL NUMBER OF POINT SOURCES/SINKS PRESENT IN THE FLOW MODEL =    62

 MAXIMUM STEPSIZE WHICH MEETS STABILITY CRITERION OF THE SINK & SOURCE TERM
 =  129.0    (WHEN MIN. R.F.=1)  AT K=   2, I=   1, J= 120

 MAXIMUM STEPSIZE WHICH MEETS STABILITY CRITERION OF THE DISPERSION TERM
 =  20.29    (WHEN MIN. R.F.=1)  AT K=   1, I=   1, J=  31
     1 CALLS TO GCG PACKAGE FOR TRANSPORT TIME STEP   2 IN FLOW TIME STEP 167 STRESS PERIOD   1
     6 TOTAL ITERATIONS
 
 SOLVING FOR HEAD 
 FLOW MODEL IS TRANSIENT
 FLOW MODEL CONTAINS CONSTANT-HEAD CELLS


 MAXIMUM STEPSIZE DURING WHICH ANY PARTICLE CANNOT MOVE MORE THAN ONE CELL
 =  5.147    (WHEN MIN. R.F.=1)  AT K=   5, I=   1, J=  73

 MAXIMUM STEPSIZE WHICH MEETS STABILITY CRITERION OF THE ADVECTION TERM
 (FOR PURE FINITE-DIFFERENCE OPTION, MIXELM=0) 
 =  3.285    (WHEN MIN. R.F.=1)  AT K=   2, I=   1, J=  78


 TOTAL NUMBER OF POINT SOURCES/SINKS PRESENT IN THE FLOW MODEL =    62

 MAXIMUM STEPSIZE WHICH MEETS STABILITY CRITERION OF THE SINK & SOURCE TERM
 =  128.0    (WHEN MIN. R.F.=1)  AT K=   2, I=   1, J= 120

 MAXIMUM STEPSIZE WHICH MEETS STABILITY CRITERION OF THE DISPERSION TERM
 =  20.29    (WHEN MIN. R.F.=1)  AT K=   1, I=   1, J=  31
     1 CALLS TO GCG PACKAGE FOR TRANSPORT TIME STEP   3 IN FLOW TIME STEP 167 STRESS PERIOD   1
     6 TOTAL ITERATIONS
 
 SOLVING FOR HEAD 
 FLOW MODEL IS TRANSIENT
 FLOW MODEL CONTAINS CONSTANT-HEAD CELLS


 MAXIMUM STEPSIZE DURING WHICH ANY PARTICLE CANNOT MOVE MORE THAN ONE CELL
 =  5.259    (WHEN MIN. R.F.=1)  AT K=   5, I=   1, J=  73

 MAXIMUM STEPSIZE WHICH MEETS STABILITY CRITERION OF THE ADVECTION TERM
 (FOR PURE FINITE-DIFFERENCE OPTION, MIXELM=0) 
 =  3.168    (WHEN MIN. R.F.=1)  AT K=   2, I=   1, J=  78


 TOTAL NUMBER OF POINT SOURCES/SINKS PRESENT IN THE FLOW MODEL =    62

 MAXIMUM STEPSIZE WHICH MEETS STABILITY CRITERION OF THE SINK & SOURCE TERM
 =  126.1    (WHEN MIN. R.F.=1)  AT K=   2, I=   1, J= 120

 MAXIMUM STEPSIZE WHICH MEETS STABILITY CRITERION OF THE DISPERSION TERM
 =  20.29    (WHEN MIN. R.F.=1)  AT K=   1, I=   1, J=  31
     1 CALLS TO GCG PACKAGE FOR TRANSPORT TIME STEP   4 IN FLOW TIME STEP 167 STRESS PERIOD   1
     6 TOTAL ITERATIONS
 
 SOLVING FOR HEAD 
 FLOW MODEL IS TRANSIENT
 FLOW MODEL CONTAINS CONSTANT-HEAD CELLS


 MAXIMUM STEPSIZE DURING WHICH ANY PARTICLE CANNOT MOVE MORE THAN ONE CELL
 =  5.397    (WHEN MIN. R.F.=1)  AT K=   6, I=   1, J=  73

 MAXIMUM STEPSIZE WHICH MEETS STABILITY CRITERION OF THE ADVECTION TERM
 (FOR PURE FINITE-DIFFERENCE OPTION, MIXELM=0) 
 =  3.181    (WHEN MIN. R.F.=1)  AT K=   2, I=   1, J=  78


 TOTAL NUMBER OF POINT SOURCES/SINKS PRESENT IN THE FLOW MODEL =    62

 MAXIMUM STEPSIZE WHICH MEETS STABILITY CRITERION OF THE SINK & SOURCE TERM
 =  116.7    (WHEN MIN. R.F.=1)  AT K=   2, I=   1, J= 120

 MAXIMUM STEPSIZE WHICH MEETS STABILITY CRITERION OF THE DISPERSION TERM
 =  20.29    (WHEN MIN. R.F.=1)  AT K=   1, I=   1, J=  31
     1 CALLS TO GCG PACKAGE FOR TRANSPORT TIME STEP   5 IN FLOW TIME STEP 167 STRESS PERIOD   1
     3 TOTAL ITERATIONS
  MAXIMUM CONCENTRATION CHANGES FOR EACH ITERATION:
  MAX. CHANGE LAYER,ROW,COL MAX. CHANGE LAYER,ROW,COL MAX. CHANGE LAYER,ROW,COL MAX. CHANGE LAYER,ROW,COL MAX. CHANGE LAYER,ROW,COL
 ------------------------------------------------------------------------------------------------------------------------------------
   0.2383E-02 (  2,  1, 79)  0.6842E-05 (  2,  1, 79)  0.2251E-07 (  2,  1, 75)


                                          ================================================
                                                         FROM TIME =   1670.0     TO    1680.0    

 
 SOLVING FOR HEAD 
 FLOW MODEL IS TRANSIENT
 FLOW MODEL CONTAINS CONSTANT-HEAD CELLS


 MAXIMUM STEPSIZE DURING WHICH ANY PARTICLE CANNOT MOVE MORE THAN ONE CELL
 =  5.402    (WHEN MIN. R.F.=1)  AT K=   6, I=   1, J=  73

 MAXIMUM STEPSIZE WHICH MEETS STABILITY CRITERION OF THE ADVECTION TERM
 (FOR PURE FINITE-DIFFERENCE OPTION, MIXELM=0) 
 =  3.187    (WHEN MIN. R.F.=1)  AT K=   2, I=   1, J=  78


 TOTAL NUMBER OF POINT SOURCES/SINKS PRESENT IN THE FLOW MODEL =    62

 MAXIMUM STEPSIZE WHICH MEETS STABILITY CRITERION OF THE SINK & SOURCE TERM
 =  135.8    (WHEN MIN. R.F.=1)  AT K=   2, I=   1, J= 120

 MAXIMUM STEPSIZE WHICH MEETS STABILITY CRITERION OF THE DISPERSION TERM
 =  20.29    (WHEN MIN. R.F.=1)  AT K=   1, I=   1, J=  31


     1 CALLS TO GCG PACKAGE FOR TRANSPORT TIME STEP   1 IN FLOW TIME STEP 168 STRESS PERIOD   1
     6 TOTAL ITERATIONS

 NO OUTPUT CONTROL FOR STRESS PERIOD    1   TIME STEP 168
 
 SOLVING FOR HEAD 
 FLOW MODEL IS TRANSIENT
 FLOW MODEL CONTAINS CONSTANT-HEAD CELLS


 MAXIMUM STEPSIZE DURING WHICH ANY PARTICLE CANNOT MOVE MORE THAN ONE CELL
 =  5.492    (WHEN MIN. R.F.=1)  AT K=   6, I=   1, J=  73

 MAXIMUM STEPSIZE WHICH MEETS STABILITY CRITERION OF THE ADVECTION TERM
 (FOR PURE FINITE-DIFFERENCE OPTION, MIXELM=0) 
 =  3.251    (WHEN MIN. R.F.=1)  AT K=   2, I=   1, J=  41


 TOTAL NUMBER OF POINT SOURCES/SINKS PRESENT IN THE FLOW MODEL =    62

 MAXIMUM STEPSIZE WHICH MEETS STABILITY CRITERION OF THE SINK & SOURCE TERM
 =  131.0    (WHEN MIN. R.F.=1)  AT K=   2, I=   1, J= 120

 MAXIMUM STEPSIZE WHICH MEETS STABILITY CRITERION OF THE DISPERSION TERM
 =  20.29    (WHEN MIN. R.F.=1)  AT K=   1, I=   1, J=  31
     1 CALLS TO GCG PACKAGE FOR TRANSPORT TIME STEP   2 IN FLOW TIME STEP 168 STRESS PERIOD   1
     6 TOTAL ITERATIONS
 
 SOLVING FOR HEAD 
 FLOW MODEL IS TRANSIENT
 FLOW MODEL CONTAINS CONSTANT-HEAD CELLS


 MAXIMUM STEPSIZE DURING WHICH ANY PARTICLE CANNOT MOVE MORE THAN ONE CELL
 =  5.618    (WHEN MIN. R.F.=1)  AT K=   6, I=   1, J=  73

 MAXIMUM STEPSIZE WHICH MEETS STABILITY CRITERION OF THE ADVECTION TERM
 (FOR PURE FINITE-DIFFERENCE OPTION, MIXELM=0) 
 =  3.445    (WHEN MIN. R.F.=1)  AT K=   2, I=   1, J=  41


 TOTAL NUMBER OF POINT SOURCES/SINKS PRESENT IN THE FLOW MODEL =    62

 MAXIMUM STEPSIZE WHICH MEETS STABILITY CRITERION OF THE SINK & SOURCE TERM
 =  131.1    (WHEN MIN. R.F.=1)  AT K=   2, I=   1, J= 120

 MAXIMUM STEPSIZE WHICH MEETS STABILITY CRITERION OF THE DISPERSION TERM
 =  20.29    (WHEN MIN. R.F.=1)  AT K=   1, I=   1, J=  31
     1 CALLS TO GCG PACKAGE FOR TRANSPORT TIME STEP   3 IN FLOW TIME STEP 168 STRESS PERIOD   1
     6 TOTAL ITERATIONS
 
 SOLVING FOR HEAD 
 FLOW MODEL IS TRANSIENT
 FLOW MODEL CONTAINS CONSTANT-HEAD CELLS


 MAXIMUM STEPSIZE DURING WHICH ANY PARTICLE CANNOT MOVE MORE THAN ONE CELL
 =  5.715    (WHEN MIN. R.F.=1)  AT K=   7, I=   1, J=  73

 MAXIMUM STEPSIZE WHICH MEETS STABILITY CRITERION OF THE ADVECTION TERM
 (FOR PURE FINITE-DIFFERENCE OPTION, MIXELM=0) 
 =  3.365    (WHEN MIN. R.F.=1)  AT K=   2, I=   1, J=  42


 TOTAL NUMBER OF POINT SOURCES/SINKS PRESENT IN THE FLOW MODEL =    62

 MAXIMUM STEPSIZE WHICH MEETS STABILITY CRITERION OF THE SINK & SOURCE TERM
 =  132.5    (WHEN MIN. R.F.=1)  AT K=   2, I=   1, J= 120

 MAXIMUM STEPSIZE WHICH MEETS STABILITY CRITERION OF THE DISPERSION TERM
 =  20.29    (WHEN MIN. R.F.=1)  AT K=   1, I=   1, J=  31
     1 CALLS TO GCG PACKAGE FOR TRANSPORT TIME STEP   4 IN FLOW TIME STEP 168 STRESS PERIOD   1
     6 TOTAL ITERATIONS
 
 SOLVING FOR HEAD 
 FLOW MODEL IS TRANSIENT
 FLOW MODEL CONTAINS CONSTANT-HEAD CELLS


 MAXIMUM STEPSIZE DURING WHICH ANY PARTICLE CANNOT MOVE MORE THAN ONE CELL
 =  5.604    (WHEN MIN. R.F.=1)  AT K=   4, I=   1, J=  49

 MAXIMUM STEPSIZE WHICH MEETS STABILITY CRITERION OF THE ADVECTION TERM
 (FOR PURE FINITE-DIFFERENCE OPTION, MIXELM=0) 
 =  3.209    (WHEN MIN. R.F.=1)  AT K=   2, I=   1, J=  42


 TOTAL NUMBER OF POINT SOURCES/SINKS PRESENT IN THE FLOW MODEL =    62

 MAXIMUM STEPSIZE WHICH MEETS STABILITY CRITERION OF THE SINK & SOURCE TERM
 =  122.4    (WHEN MIN. R.F.=1)  AT K=   2, I=   1, J= 120

 MAXIMUM STEPSIZE WHICH MEETS STABILITY CRITERION OF THE DISPERSION TERM
 =  20.29    (WHEN MIN. R.F.=1)  AT K=   1, I=   1, J=  31
     1 CALLS TO GCG PACKAGE FOR TRANSPORT TIME STEP   5 IN FLOW TIME STEP 168 STRESS PERIOD   1
     3 TOTAL ITERATIONS
  MAXIMUM CONCENTRATION CHANGES FOR EACH ITERATION:
  MAX. CHANGE LAYER,ROW,COL MAX. CHANGE LAYER,ROW,COL MAX. CHANGE LAYER,ROW,COL MAX. CHANGE LAYER,ROW,COL MAX. CHANGE LAYER,ROW,COL
 ------------------------------------------------------------------------------------------------------------------------------------
   0.2579E-02 (  2,  1, 40)  0.9771E-05 (  2,  1, 77)  0.3309E-07 (  3,  1, 77)


                                          ================================================
                                                         FROM TIME =   1680.0     TO    1690.0    

 
 SOLVING FOR HEAD 
 FLOW MODEL IS TRANSIENT
 FLOW MODEL CONTAINS CONSTANT-HEAD CELLS


 MAXIMUM STEPSIZE DURING WHICH ANY PARTICLE CANNOT MOVE MORE THAN ONE CELL
 =  5.580    (WHEN MIN. R.F.=1)  AT K=   4, I=   1, J=  49

 MAXIMUM STEPSIZE WHICH MEETS STABILITY CRITERION OF THE ADVECTION TERM
 (FOR PURE FINITE-DIFFERENCE OPTION, MIXELM=0) 
 =  3.205    (WHEN MIN. R.F.=1)  AT K=   2, I=   1, J=  42


 TOTAL NUMBER OF POINT SOURCES/SINKS PRESENT IN THE FLOW MODEL =    62

 MAXIMUM STEPSIZE WHICH MEETS STABILITY CRITERION OF THE SINK & SOURCE TERM
 =  144.9    (WHEN MIN. R.F.=1)  AT K=   2, I=   1, J= 120

 MAXIMUM STEPSIZE WHICH MEETS STABILITY CRITERION OF THE DISPERSION TERM
 =  20.29    (WHEN MIN. R.F.=1)  AT K=   1, I=   1, J=  31


     1 CALLS TO GCG PACKAGE FOR TRANSPORT TIME STEP   1 IN FLOW TIME STEP 169 STRESS PERIOD   1
     6 TOTAL ITERATIONS

 NO OUTPUT CONTROL FOR STRESS PERIOD    1   TIME STEP 169
 
 SOLVING FOR HEAD 
 FLOW MODEL IS TRANSIENT
 FLOW MODEL CONTAINS CONSTANT-HEAD CELLS


 MAXIMUM STEPSIZE DURING WHICH ANY PARTICLE CANNOT MOVE MORE THAN ONE CELL
 =  5.346    (WHEN MIN. R.F.=1)  AT K=   4, I=   1, J=  49

 MAXIMUM STEPSIZE WHICH MEETS STABILITY CRITERION OF THE ADVECTION TERM
 (FOR PURE FINITE-DIFFERENCE OPTION, MIXELM=0) 
 =  3.205    (WHEN MIN. R.F.=1)  AT K=   2, I=   1, J=  42


 TOTAL NUMBER OF POINT SOURCES/SINKS PRESENT IN THE FLOW MODEL =    62

 MAXIMUM STEPSIZE WHICH MEETS STABILITY CRITERION OF THE SINK & SOURCE TERM
 =  142.1    (WHEN MIN. R.F.=1)  AT K=   2, I=   1, J= 120

 MAXIMUM STEPSIZE WHICH MEETS STABILITY CRITERION OF THE DISPERSION TERM
 =  20.29    (WHEN MIN. R.F.=1)  AT K=   1, I=   1, J=  31
     1 CALLS TO GCG PACKAGE FOR TRANSPORT TIME STEP   2 IN FLOW TIME STEP 169 STRESS PERIOD   1
     6 TOTAL ITERATIONS
 
 SOLVING FOR HEAD 
 FLOW MODEL IS TRANSIENT
 FLOW MODEL CONTAINS CONSTANT-HEAD CELLS


 MAXIMUM STEPSIZE DURING WHICH ANY PARTICLE CANNOT MOVE MORE THAN ONE CELL
 =  5.177    (WHEN MIN. R.F.=1)  AT K=   4, I=   1, J=  49

 MAXIMUM STEPSIZE WHICH MEETS STABILITY CRITERION OF THE ADVECTION TERM
 (FOR PURE FINITE-DIFFERENCE OPTION, MIXELM=0) 
 =  3.307    (WHEN MIN. R.F.=1)  AT K=   2, I=   1, J=  42


 TOTAL NUMBER OF POINT SOURCES/SINKS PRESENT IN THE FLOW MODEL =    62

 MAXIMUM STEPSIZE WHICH MEETS STABILITY CRITERION OF THE SINK & SOURCE TERM
 =  143.8    (WHEN MIN. R.F.=1)  AT K=   2, I=   1, J= 120

 MAXIMUM STEPSIZE WHICH MEETS STABILITY CRITERION OF THE DISPERSION TERM
 =  20.29    (WHEN MIN. R.F.=1)  AT K=   1, I=   1, J=  31
     1 CALLS TO GCG PACKAGE FOR TRANSPORT TIME STEP   3 IN FLOW TIME STEP 169 STRESS PERIOD   1
     6 TOTAL ITERATIONS
 
 SOLVING FOR HEAD 
 FLOW MODEL IS TRANSIENT
 FLOW MODEL CONTAINS CONSTANT-HEAD CELLS


 MAXIMUM STEPSIZE DURING WHICH ANY PARTICLE CANNOT MOVE MORE THAN ONE CELL
 =  5.073    (WHEN MIN. R.F.=1)  AT K=   4, I=   1, J=  49

 MAXIMUM STEPSIZE WHICH MEETS STABILITY CRITERION OF THE ADVECTION TERM
 (FOR PURE FINITE-DIFFERENCE OPTION, MIXELM=0) 
 =  3.575    (WHEN MIN. R.F.=1)  AT K=   2, I=   1, J=  42


 TOTAL NUMBER OF POINT SOURCES/SINKS PRESENT IN THE FLOW MODEL =    62

 MAXIMUM STEPSIZE WHICH MEETS STABILITY CRITERION OF THE SINK & SOURCE TERM
 =  145.4    (WHEN MIN. R.F.=1)  AT K=   2, I=   1, J= 120

 MAXIMUM STEPSIZE WHICH MEETS STABILITY CRITERION OF THE DISPERSION TERM
 =  20.29    (WHEN MIN. R.F.=1)  AT K=   1, I=   1, J=  31
     1 CALLS TO GCG PACKAGE FOR TRANSPORT TIME STEP   4 IN FLOW TIME STEP 169 STRESS PERIOD   1
     6 TOTAL ITERATIONS
 
 SOLVING FOR HEAD 
 FLOW MODEL IS TRANSIENT
 FLOW MODEL CONTAINS CONSTANT-HEAD CELLS


 MAXIMUM STEPSIZE DURING WHICH ANY PARTICLE CANNOT MOVE MORE THAN ONE CELL
 =  5.021    (WHEN MIN. R.F.=1)  AT K=   4, I=   1, J=  49

 MAXIMUM STEPSIZE WHICH MEETS STABILITY CRITERION OF THE ADVECTION TERM
 (FOR PURE FINITE-DIFFERENCE OPTION, MIXELM=0) 
 =  3.390    (WHEN MIN. R.F.=1)  AT K=   2, I=   1, J=  43


 TOTAL NUMBER OF POINT SOURCES/SINKS PRESENT IN THE FLOW MODEL =    62

 MAXIMUM STEPSIZE WHICH MEETS STABILITY CRITERION OF THE SINK & SOURCE TERM
 =  134.6    (WHEN MIN. R.F.=1)  AT K=   2, I=   1, J= 120

 MAXIMUM STEPSIZE WHICH MEETS STABILITY CRITERION OF THE DISPERSION TERM
 =  20.29    (WHEN MIN. R.F.=1)  AT K=   1, I=   1, J=  31
     1 CALLS TO GCG PACKAGE FOR TRANSPORT TIME STEP   5 IN FLOW TIME STEP 169 STRESS PERIOD   1
     4 TOTAL ITERATIONS
  MAXIMUM CONCENTRATION CHANGES FOR EACH ITERATION:
  MAX. CHANGE LAYER,ROW,COL MAX. CHANGE LAYER,ROW,COL MAX. CHANGE LAYER,ROW,COL MAX. CHANGE LAYER,ROW,COL MAX. CHANGE LAYER,ROW,COL
 ------------------------------------------------------------------------------------------------------------------------------------
   0.4107E-02 (  2,  1, 78)  0.2614E-04 (  2,  1, 76)  0.1689E-06 (  3,  1, 76)  0.8952E-09 (  3,  1, 46)


                                          ================================================
                                                         FROM TIME =   1690.0     TO    1700.0    

 
 SOLVING FOR HEAD 
 FLOW MODEL IS TRANSIENT
 FLOW MODEL CONTAINS CONSTANT-HEAD CELLS


 MAXIMUM STEPSIZE DURING WHICH ANY PARTICLE CANNOT MOVE MORE THAN ONE CELL
 =  5.018    (WHEN MIN. R.F.=1)  AT K=   4, I=   1, J=  49

 MAXIMUM STEPSIZE WHICH MEETS STABILITY CRITERION OF THE ADVECTION TERM
 (FOR PURE FINITE-DIFFERENCE OPTION, MIXELM=0) 
 =  3.370    (WHEN MIN. R.F.=1)  AT K=   2, I=   1, J=  43


 TOTAL NUMBER OF POINT SOURCES/SINKS PRESENT IN THE FLOW MODEL =    62

 MAXIMUM STEPSIZE WHICH MEETS STABILITY CRITERION OF THE SINK & SOURCE TERM
 =  155.1    (WHEN MIN. R.F.=1)  AT K=   2, I=   1, J= 120

 MAXIMUM STEPSIZE WHICH MEETS STABILITY CRITERION OF THE DISPERSION TERM
 =  20.29    (WHEN MIN. R.F.=1)  AT K=   1, I=   1, J=  31


     1 CALLS TO GCG PACKAGE FOR TRANSPORT TIME STEP   1 IN FLOW TIME STEP 170 STRESS PERIOD   1
     6 TOTAL ITERATIONS

 NO OUTPUT CONTROL FOR STRESS PERIOD    1   TIME STEP 170
 
 SOLVING FOR HEAD 
 FLOW MODEL IS TRANSIENT
 FLOW MODEL CONTAINS CONSTANT-HEAD CELLS


 MAXIMUM STEPSIZE DURING WHICH ANY PARTICLE CANNOT MOVE MORE THAN ONE CELL
 =  5.022    (WHEN MIN. R.F.=1)  AT K=   4, I=   1, J=  49

 MAXIMUM STEPSIZE WHICH MEETS STABILITY CRITERION OF THE ADVECTION TERM
 (FOR PURE FINITE-DIFFERENCE OPTION, MIXELM=0) 
 =  3.264    (WHEN MIN. R.F.=1)  AT K=   2, I=   1, J=  43


 TOTAL NUMBER OF POINT SOURCES/SINKS PRESENT IN THE FLOW MODEL =    62

 MAXIMUM STEPSIZE WHICH MEETS STABILITY CRITERION OF THE SINK & SOURCE TERM
 =  149.4    (WHEN MIN. R.F.=1)  AT K=   2, I=   1, J= 120

 MAXIMUM STEPSIZE WHICH MEETS STABILITY CRITERION OF THE DISPERSION TERM
 =  20.29    (WHEN MIN. R.F.=1)  AT K=   1, I=   1, J=  31
     1 CALLS TO GCG PACKAGE FOR TRANSPORT TIME STEP   2 IN FLOW TIME STEP 170 STRESS PERIOD   1
     6 TOTAL ITERATIONS
 
 SOLVING FOR HEAD 
 FLOW MODEL IS TRANSIENT
 FLOW MODEL CONTAINS CONSTANT-HEAD CELLS


 MAXIMUM STEPSIZE DURING WHICH ANY PARTICLE CANNOT MOVE MORE THAN ONE CELL
 =  5.073    (WHEN MIN. R.F.=1)  AT K=   4, I=   1, J=  49

 MAXIMUM STEPSIZE WHICH MEETS STABILITY CRITERION OF THE ADVECTION TERM
 (FOR PURE FINITE-DIFFERENCE OPTION, MIXELM=0) 
 =  3.291    (WHEN MIN. R.F.=1)  AT K=   2, I=   1, J=  43


 TOTAL NUMBER OF POINT SOURCES/SINKS PRESENT IN THE FLOW MODEL =    62

 MAXIMUM STEPSIZE WHICH MEETS STABILITY CRITERION OF THE SINK & SOURCE TERM
 =  151.4    (WHEN MIN. R.F.=1)  AT K=   2, I=   1, J= 120

 MAXIMUM STEPSIZE WHICH MEETS STABILITY CRITERION OF THE DISPERSION TERM
 =  20.29    (WHEN MIN. R.F.=1)  AT K=   1, I=   1, J=  31
     1 CALLS TO GCG PACKAGE FOR TRANSPORT TIME STEP   3 IN FLOW TIME STEP 170 STRESS PERIOD   1
     6 TOTAL ITERATIONS
 
 SOLVING FOR HEAD 
 FLOW MODEL IS TRANSIENT
 FLOW MODEL CONTAINS CONSTANT-HEAD CELLS


 MAXIMUM STEPSIZE DURING WHICH ANY PARTICLE CANNOT MOVE MORE THAN ONE CELL
 =  5.149    (WHEN MIN. R.F.=1)  AT K=   4, I=   1, J=  49

 MAXIMUM STEPSIZE WHICH MEETS STABILITY CRITERION OF THE ADVECTION TERM
 (FOR PURE FINITE-DIFFERENCE OPTION, MIXELM=0) 
 =  3.434    (WHEN MIN. R.F.=1)  AT K=   2, I=   1, J=  43


 TOTAL NUMBER OF POINT SOURCES/SINKS PRESENT IN THE FLOW MODEL =    62

 MAXIMUM STEPSIZE WHICH MEETS STABILITY CRITERION OF THE SINK & SOURCE TERM
 =  158.3    (WHEN MIN. R.F.=1)  AT K=   2, I=   1, J= 120

 MAXIMUM STEPSIZE WHICH MEETS STABILITY CRITERION OF THE DISPERSION TERM
 =  20.29    (WHEN MIN. R.F.=1)  AT K=   1, I=   1, J=  31
     1 CALLS TO GCG PACKAGE FOR TRANSPORT TIME STEP   4 IN FLOW TIME STEP 170 STRESS PERIOD   1
     6 TOTAL ITERATIONS
 
 SOLVING FOR HEAD 
 FLOW MODEL IS TRANSIENT
 FLOW MODEL CONTAINS CONSTANT-HEAD CELLS


 MAXIMUM STEPSIZE DURING WHICH ANY PARTICLE CANNOT MOVE MORE THAN ONE CELL
 =  5.219    (WHEN MIN. R.F.=1)  AT K=   5, I=   1, J=  49

 MAXIMUM STEPSIZE WHICH MEETS STABILITY CRITERION OF THE ADVECTION TERM
 (FOR PURE FINITE-DIFFERENCE OPTION, MIXELM=0) 
 =  3.622    (WHEN MIN. R.F.=1)  AT K=   2, I=   1, J=  76


 TOTAL NUMBER OF POINT SOURCES/SINKS PRESENT IN THE FLOW MODEL =    62

 MAXIMUM STEPSIZE WHICH MEETS STABILITY CRITERION OF THE SINK & SOURCE TERM
 =  144.5    (WHEN MIN. R.F.=1)  AT K=   2, I=   1, J= 120

 MAXIMUM STEPSIZE WHICH MEETS STABILITY CRITERION OF THE DISPERSION TERM
 =  20.29    (WHEN MIN. R.F.=1)  AT K=   1, I=   1, J=  31
     1 CALLS TO GCG PACKAGE FOR TRANSPORT TIME STEP   5 IN FLOW TIME STEP 170 STRESS PERIOD   1
     2 TOTAL ITERATIONS
  MAXIMUM CONCENTRATION CHANGES FOR EACH ITERATION:
  MAX. CHANGE LAYER,ROW,COL MAX. CHANGE LAYER,ROW,COL MAX. CHANGE LAYER,ROW,COL MAX. CHANGE LAYER,ROW,COL MAX. CHANGE LAYER,ROW,COL
 ------------------------------------------------------------------------------------------------------------------------------------
   0.2072E-03 (  2,  1, 77)  0.4565E-07 (  2,  1, 74)


                                          ================================================
                                                         FROM TIME =   1700.0     TO    1710.0    

 
 SOLVING FOR HEAD 
 FLOW MODEL IS TRANSIENT
 FLOW MODEL CONTAINS CONSTANT-HEAD CELLS


 MAXIMUM STEPSIZE DURING WHICH ANY PARTICLE CANNOT MOVE MORE THAN ONE CELL
 =  5.219    (WHEN MIN. R.F.=1)  AT K=   5, I=   1, J=  49

 MAXIMUM STEPSIZE WHICH MEETS STABILITY CRITERION OF THE ADVECTION TERM
 (FOR PURE FINITE-DIFFERENCE OPTION, MIXELM=0) 
 =  3.622    (WHEN MIN. R.F.=1)  AT K=   2, I=   1, J=  76


 TOTAL NUMBER OF POINT SOURCES/SINKS PRESENT IN THE FLOW MODEL =    62

 MAXIMUM STEPSIZE WHICH MEETS STABILITY CRITERION OF THE SINK & SOURCE TERM
 =  165.6    (WHEN MIN. R.F.=1)  AT K=   2, I=   1, J= 120

 MAXIMUM STEPSIZE WHICH MEETS STABILITY CRITERION OF THE DISPERSION TERM
 =  20.29    (WHEN MIN. R.F.=1)  AT K=   1, I=   1, J=  31


     1 CALLS TO GCG PACKAGE FOR TRANSPORT TIME STEP   1 IN FLOW TIME STEP 171 STRESS PERIOD   1
     6 TOTAL ITERATIONS

 NO OUTPUT CONTROL FOR STRESS PERIOD    1   TIME STEP 171
 
 SOLVING FOR HEAD 
 FLOW MODEL IS TRANSIENT
 FLOW MODEL CONTAINS CONSTANT-HEAD CELLS


 MAXIMUM STEPSIZE DURING WHICH ANY PARTICLE CANNOT MOVE MORE THAN ONE CELL
 =  5.306    (WHEN MIN. R.F.=1)  AT K=   5, I=   1, J=  49

 MAXIMUM STEPSIZE WHICH MEETS STABILITY CRITERION OF THE ADVECTION TERM
 (FOR PURE FINITE-DIFFERENCE OPTION, MIXELM=0) 
 =  3.405    (WHEN MIN. R.F.=1)  AT K=   2, I=   1, J=  44


 TOTAL NUMBER OF POINT SOURCES/SINKS PRESENT IN THE FLOW MODEL =    62

 MAXIMUM STEPSIZE WHICH MEETS STABILITY CRITERION OF THE SINK & SOURCE TERM
 =  158.9    (WHEN MIN. R.F.=1)  AT K=   2, I=   1, J= 120

 MAXIMUM STEPSIZE WHICH MEETS STABILITY CRITERION OF THE DISPERSION TERM
 =  20.29    (WHEN MIN. R.F.=1)  AT K=   1, I=   1, J=  31
     1 CALLS TO GCG PACKAGE FOR TRANSPORT TIME STEP   2 IN FLOW TIME STEP 171 STRESS PERIOD   1
     6 TOTAL ITERATIONS
 
 SOLVING FOR HEAD 
 FLOW MODEL IS TRANSIENT
 FLOW MODEL CONTAINS CONSTANT-HEAD CELLS


 MAXIMUM STEPSIZE DURING WHICH ANY PARTICLE CANNOT MOVE MORE THAN ONE CELL
 =  5.420    (WHEN MIN. R.F.=1)  AT K=   5, I=   1, J=  49

 MAXIMUM STEPSIZE WHICH MEETS STABILITY CRITERION OF THE ADVECTION TERM
 (FOR PURE FINITE-DIFFERENCE OPTION, MIXELM=0) 
 =  3.330    (WHEN MIN. R.F.=1)  AT K=   2, I=   1, J=  44


 TOTAL NUMBER OF POINT SOURCES/SINKS PRESENT IN THE FLOW MODEL =    62

 MAXIMUM STEPSIZE WHICH MEETS STABILITY CRITERION OF THE SINK & SOURCE TERM
 =  156.8    (WHEN MIN. R.F.=1)  AT K=   2, I=   1, J= 120

 MAXIMUM STEPSIZE WHICH MEETS STABILITY CRITERION OF THE DISPERSION TERM
 =  20.29    (WHEN MIN. R.F.=1)  AT K=   1, I=   1, J=  31
     1 CALLS TO GCG PACKAGE FOR TRANSPORT TIME STEP   3 IN FLOW TIME STEP 171 STRESS PERIOD   1
     6 TOTAL ITERATIONS
 
 SOLVING FOR HEAD 
 FLOW MODEL IS TRANSIENT
 FLOW MODEL CONTAINS CONSTANT-HEAD CELLS


 MAXIMUM STEPSIZE DURING WHICH ANY PARTICLE CANNOT MOVE MORE THAN ONE CELL
 =  5.523    (WHEN MIN. R.F.=1)  AT K=   6, I=   1, J=  49

 MAXIMUM STEPSIZE WHICH MEETS STABILITY CRITERION OF THE ADVECTION TERM
 (FOR PURE FINITE-DIFFERENCE OPTION, MIXELM=0) 
 =  3.388    (WHEN MIN. R.F.=1)  AT K=   2, I=   1, J=  44


 TOTAL NUMBER OF POINT SOURCES/SINKS PRESENT IN THE FLOW MODEL =    62

 MAXIMUM STEPSIZE WHICH MEETS STABILITY CRITERION OF THE SINK & SOURCE TERM
 =  158.3    (WHEN MIN. R.F.=1)  AT K=   2, I=   1, J= 120

 MAXIMUM STEPSIZE WHICH MEETS STABILITY CRITERION OF THE DISPERSION TERM
 =  20.29    (WHEN MIN. R.F.=1)  AT K=   1, I=   1, J=  31
     1 CALLS TO GCG PACKAGE FOR TRANSPORT TIME STEP   4 IN FLOW TIME STEP 171 STRESS PERIOD   1
     5 TOTAL ITERATIONS
  MAXIMUM CONCENTRATION CHANGES FOR EACH ITERATION:
  MAX. CHANGE LAYER,ROW,COL MAX. CHANGE LAYER,ROW,COL MAX. CHANGE LAYER,ROW,COL MAX. CHANGE LAYER,ROW,COL MAX. CHANGE LAYER,ROW,COL
 ------------------------------------------------------------------------------------------------------------------------------------
   0.2562E-01 (  2,  1, 43)  0.8758E-03 (  2,  1, 75)  0.3161E-04 (  2,  1, 77)  0.1871E-05 (  3,  1, 47)  0.6608E-07 (  3,  1, 78)


                                          ================================================
                                                         FROM TIME =   1710.0     TO    1720.0    

 
 SOLVING FOR HEAD 
 FLOW MODEL IS TRANSIENT
 FLOW MODEL CONTAINS CONSTANT-HEAD CELLS


 MAXIMUM STEPSIZE DURING WHICH ANY PARTICLE CANNOT MOVE MORE THAN ONE CELL
 =  5.602    (WHEN MIN. R.F.=1)  AT K=   6, I=   1, J=  49

 MAXIMUM STEPSIZE WHICH MEETS STABILITY CRITERION OF THE ADVECTION TERM
 (FOR PURE FINITE-DIFFERENCE OPTION, MIXELM=0) 
 =  3.528    (WHEN MIN. R.F.=1)  AT K=   2, I=   1, J=  44


 TOTAL NUMBER OF POINT SOURCES/SINKS PRESENT IN THE FLOW MODEL =    62

 MAXIMUM STEPSIZE WHICH MEETS STABILITY CRITERION OF THE SINK & SOURCE TERM
 =  165.4    (WHEN MIN. R.F.=1)  AT K=   2, I=   1, J= 120

 MAXIMUM STEPSIZE WHICH MEETS STABILITY CRITERION OF THE DISPERSION TERM
 =  20.29    (WHEN MIN. R.F.=1)  AT K=   1, I=   1, J=  31


     1 CALLS TO GCG PACKAGE FOR TRANSPORT TIME STEP   1 IN FLOW TIME STEP 172 STRESS PERIOD   1
     6 TOTAL ITERATIONS

 NO OUTPUT CONTROL FOR STRESS PERIOD    1   TIME STEP 172
 
 SOLVING FOR HEAD 
 FLOW MODEL IS TRANSIENT
 FLOW MODEL CONTAINS CONSTANT-HEAD CELLS


 MAXIMUM STEPSIZE DURING WHICH ANY PARTICLE CANNOT MOVE MORE THAN ONE CELL
 =  5.714    (WHEN MIN. R.F.=1)  AT K=   6, I=   1, J=  49

 MAXIMUM STEPSIZE WHICH MEETS STABILITY CRITERION OF THE ADVECTION TERM
 (FOR PURE FINITE-DIFFERENCE OPTION, MIXELM=0) 
 =  3.829    (WHEN MIN. R.F.=1)  AT K=   2, I=   1, J=  45


 TOTAL NUMBER OF POINT SOURCES/SINKS PRESENT IN THE FLOW MODEL =    62

 MAXIMUM STEPSIZE WHICH MEETS STABILITY CRITERION OF THE SINK & SOURCE TERM
 =  164.1    (WHEN MIN. R.F.=1)  AT K=   2, I=   1, J= 120

 MAXIMUM STEPSIZE WHICH MEETS STABILITY CRITERION OF THE DISPERSION TERM
 =  20.29    (WHEN MIN. R.F.=1)  AT K=   1, I=   1, J=  31
     1 CALLS TO GCG PACKAGE FOR TRANSPORT TIME STEP   2 IN FLOW TIME STEP 172 STRESS PERIOD   1
     6 TOTAL ITERATIONS
 
 SOLVING FOR HEAD 
 FLOW MODEL IS TRANSIENT
 FLOW MODEL CONTAINS CONSTANT-HEAD CELLS


 MAXIMUM STEPSIZE DURING WHICH ANY PARTICLE CANNOT MOVE MORE THAN ONE CELL
 =  5.807    (WHEN MIN. R.F.=1)  AT K=   7, I=   1, J=  49

 MAXIMUM STEPSIZE WHICH MEETS STABILITY CRITERION OF THE ADVECTION TERM
 (FOR PURE FINITE-DIFFERENCE OPTION, MIXELM=0) 
 =  3.565    (WHEN MIN. R.F.=1)  AT K=   2, I=   1, J=  45


 TOTAL NUMBER OF POINT SOURCES/SINKS PRESENT IN THE FLOW MODEL =    62

 MAXIMUM STEPSIZE WHICH MEETS STABILITY CRITERION OF THE SINK & SOURCE TERM
 =  157.0    (WHEN MIN. R.F.=1)  AT K=   2, I=   1, J= 120

 MAXIMUM STEPSIZE WHICH MEETS STABILITY CRITERION OF THE DISPERSION TERM
 =  20.29    (WHEN MIN. R.F.=1)  AT K=   1, I=   1, J=  31
     1 CALLS TO GCG PACKAGE FOR TRANSPORT TIME STEP   3 IN FLOW TIME STEP 172 STRESS PERIOD   1
     6 TOTAL ITERATIONS
 
 SOLVING FOR HEAD 
 FLOW MODEL IS TRANSIENT
 FLOW MODEL CONTAINS CONSTANT-HEAD CELLS


 MAXIMUM STEPSIZE DURING WHICH ANY PARTICLE CANNOT MOVE MORE THAN ONE CELL
 =  5.922    (WHEN MIN. R.F.=1)  AT K=   7, I=   1, J=  49

 MAXIMUM STEPSIZE WHICH MEETS STABILITY CRITERION OF THE ADVECTION TERM
 (FOR PURE FINITE-DIFFERENCE OPTION, MIXELM=0) 
 =  3.461    (WHEN MIN. R.F.=1)  AT K=   2, I=   1, J=  45


 TOTAL NUMBER OF POINT SOURCES/SINKS PRESENT IN THE FLOW MODEL =    62

 MAXIMUM STEPSIZE WHICH MEETS STABILITY CRITERION OF THE SINK & SOURCE TERM
 =  149.5    (WHEN MIN. R.F.=1)  AT K=   2, I=   1, J= 120

 MAXIMUM STEPSIZE WHICH MEETS STABILITY CRITERION OF THE DISPERSION TERM
 =  20.29    (WHEN MIN. R.F.=1)  AT K=   1, I=   1, J=  31
     1 CALLS TO GCG PACKAGE FOR TRANSPORT TIME STEP   4 IN FLOW TIME STEP 172 STRESS PERIOD   1
     5 TOTAL ITERATIONS
  MAXIMUM CONCENTRATION CHANGES FOR EACH ITERATION:
  MAX. CHANGE LAYER,ROW,COL MAX. CHANGE LAYER,ROW,COL MAX. CHANGE LAYER,ROW,COL MAX. CHANGE LAYER,ROW,COL MAX. CHANGE LAYER,ROW,COL
 ------------------------------------------------------------------------------------------------------------------------------------
   0.2594E-01 (  2,  1, 76)  0.7218E-03 (  2,  1, 82)  0.2649E-04 (  2,  1, 83)  0.1092E-05 (  3,  1, 52)  0.4737E-07 (  3,  1, 49)


                                          ================================================
                                                         FROM TIME =   1720.0     TO    1730.0    

 
 SOLVING FOR HEAD 
 FLOW MODEL IS TRANSIENT
 FLOW MODEL CONTAINS CONSTANT-HEAD CELLS


 MAXIMUM STEPSIZE DURING WHICH ANY PARTICLE CANNOT MOVE MORE THAN ONE CELL
 =  6.003    (WHEN MIN. R.F.=1)  AT K=   8, I=   1, J=  49

 MAXIMUM STEPSIZE WHICH MEETS STABILITY CRITERION OF THE ADVECTION TERM
 (FOR PURE FINITE-DIFFERENCE OPTION, MIXELM=0) 
 =  3.441    (WHEN MIN. R.F.=1)  AT K=   2, I=   1, J=  81


 TOTAL NUMBER OF POINT SOURCES/SINKS PRESENT IN THE FLOW MODEL =    62

 MAXIMUM STEPSIZE WHICH MEETS STABILITY CRITERION OF THE SINK & SOURCE TERM
 =  159.3    (WHEN MIN. R.F.=1)  AT K=   2, I=   1, J= 120

 MAXIMUM STEPSIZE WHICH MEETS STABILITY CRITERION OF THE DISPERSION TERM
 =  20.29    (WHEN MIN. R.F.=1)  AT K=   1, I=   1, J=  31


     1 CALLS TO GCG PACKAGE FOR TRANSPORT TIME STEP   1 IN FLOW TIME STEP 173 STRESS PERIOD   1
     6 TOTAL ITERATIONS

 NO OUTPUT CONTROL FOR STRESS PERIOD    1   TIME STEP 173
 
 SOLVING FOR HEAD 
 FLOW MODEL IS TRANSIENT
 FLOW MODEL CONTAINS CONSTANT-HEAD CELLS


 MAXIMUM STEPSIZE DURING WHICH ANY PARTICLE CANNOT MOVE MORE THAN ONE CELL
 =  6.101    (WHEN MIN. R.F.=1)  AT K=   8, I=   1, J=  49

 MAXIMUM STEPSIZE WHICH MEETS STABILITY CRITERION OF THE ADVECTION TERM
 (FOR PURE FINITE-DIFFERENCE OPTION, MIXELM=0) 
 =  3.399    (WHEN MIN. R.F.=1)  AT K=   2, I=   1, J=  81


 TOTAL NUMBER OF POINT SOURCES/SINKS PRESENT IN THE FLOW MODEL =    62

 MAXIMUM STEPSIZE WHICH MEETS STABILITY CRITERION OF THE SINK & SOURCE TERM
 =  157.1    (WHEN MIN. R.F.=1)  AT K=   2, I=   1, J= 120

 MAXIMUM STEPSIZE WHICH MEETS STABILITY CRITERION OF THE DISPERSION TERM
 =  20.29    (WHEN MIN. R.F.=1)  AT K=   1, I=   1, J=  31
     1 CALLS TO GCG PACKAGE FOR TRANSPORT TIME STEP   2 IN FLOW TIME STEP 173 STRESS PERIOD   1
     6 TOTAL ITERATIONS
 
 SOLVING FOR HEAD 
 FLOW MODEL IS TRANSIENT
 FLOW MODEL CONTAINS CONSTANT-HEAD CELLS


 MAXIMUM STEPSIZE DURING WHICH ANY PARTICLE CANNOT MOVE MORE THAN ONE CELL
 =  6.075    (WHEN MIN. R.F.=1)  AT K=   3, I=   1, J=  73

 MAXIMUM STEPSIZE WHICH MEETS STABILITY CRITERION OF THE ADVECTION TERM
 (FOR PURE FINITE-DIFFERENCE OPTION, MIXELM=0) 
 =  3.590    (WHEN MIN. R.F.=1)  AT K=   2, I=   1, J=  81


 TOTAL NUMBER OF POINT SOURCES/SINKS PRESENT IN THE FLOW MODEL =    62

 MAXIMUM STEPSIZE WHICH MEETS STABILITY CRITERION OF THE SINK & SOURCE TERM
 =  156.2    (WHEN MIN. R.F.=1)  AT K=   2, I=   1, J= 120

 MAXIMUM STEPSIZE WHICH MEETS STABILITY CRITERION OF THE DISPERSION TERM
 =  20.29    (WHEN MIN. R.F.=1)  AT K=   1, I=   1, J=  31
     1 CALLS TO GCG PACKAGE FOR TRANSPORT TIME STEP   3 IN FLOW TIME STEP 173 STRESS PERIOD   1
     6 TOTAL ITERATIONS
 
 SOLVING FOR HEAD 
 FLOW MODEL IS TRANSIENT
 FLOW MODEL CONTAINS CONSTANT-HEAD CELLS


 MAXIMUM STEPSIZE DURING WHICH ANY PARTICLE CANNOT MOVE MORE THAN ONE CELL
 =  5.705    (WHEN MIN. R.F.=1)  AT K=   3, I=   1, J=  73

 MAXIMUM STEPSIZE WHICH MEETS STABILITY CRITERION OF THE ADVECTION TERM
 (FOR PURE FINITE-DIFFERENCE OPTION, MIXELM=0) 
 =  3.333    (WHEN MIN. R.F.=1)  AT K=   2, I=   1, J=  80


 TOTAL NUMBER OF POINT SOURCES/SINKS PRESENT IN THE FLOW MODEL =    62

 MAXIMUM STEPSIZE WHICH MEETS STABILITY CRITERION OF THE SINK & SOURCE TERM
 =  153.4    (WHEN MIN. R.F.=1)  AT K=   2, I=   1, J= 120

 MAXIMUM STEPSIZE WHICH MEETS STABILITY CRITERION OF THE DISPERSION TERM
 =  20.29    (WHEN MIN. R.F.=1)  AT K=   1, I=   1, J=  31
     1 CALLS TO GCG PACKAGE FOR TRANSPORT TIME STEP   4 IN FLOW TIME STEP 173 STRESS PERIOD   1
     5 TOTAL ITERATIONS
  MAXIMUM CONCENTRATION CHANGES FOR EACH ITERATION:
  MAX. CHANGE LAYER,ROW,COL MAX. CHANGE LAYER,ROW,COL MAX. CHANGE LAYER,ROW,COL MAX. CHANGE LAYER,ROW,COL MAX. CHANGE LAYER,ROW,COL
 ------------------------------------------------------------------------------------------------------------------------------------
   0.2907E-01 (  2,  1, 82)  0.9571E-03 (  2,  1, 81)  0.3989E-04 (  3,  1, 80)  0.1848E-05 (  3,  1, 52)  0.8981E-07 (  4,  1, 73)


                                          ================================================
                                                         FROM TIME =   1730.0     TO    1740.0    

 
 SOLVING FOR HEAD 
 FLOW MODEL IS TRANSIENT
 FLOW MODEL CONTAINS CONSTANT-HEAD CELLS


 MAXIMUM STEPSIZE DURING WHICH ANY PARTICLE CANNOT MOVE MORE THAN ONE CELL
 =  5.445    (WHEN MIN. R.F.=1)  AT K=   3, I=   1, J=  73

 MAXIMUM STEPSIZE WHICH MEETS STABILITY CRITERION OF THE ADVECTION TERM
 (FOR PURE FINITE-DIFFERENCE OPTION, MIXELM=0) 
 =  3.169    (WHEN MIN. R.F.=1)  AT K=   2, I=   1, J=  80


 TOTAL NUMBER OF POINT SOURCES/SINKS PRESENT IN THE FLOW MODEL =    62

 MAXIMUM STEPSIZE WHICH MEETS STABILITY CRITERION OF THE SINK & SOURCE TERM
 =  152.7    (WHEN MIN. R.F.=1)  AT K=   2, I=   1, J= 120

 MAXIMUM STEPSIZE WHICH MEETS STABILITY CRITERION OF THE DISPERSION TERM
 =  20.29    (WHEN MIN. R.F.=1)  AT K=   1, I=   1, J=  31


     1 CALLS TO GCG PACKAGE FOR TRANSPORT TIME STEP   1 IN FLOW TIME STEP 174 STRESS PERIOD   1
     6 TOTAL ITERATIONS

 NO OUTPUT CONTROL FOR STRESS PERIOD    1   TIME STEP 174
 
 SOLVING FOR HEAD 
 FLOW MODEL IS TRANSIENT
 FLOW MODEL CONTAINS CONSTANT-HEAD CELLS


 MAXIMUM STEPSIZE DURING WHICH ANY PARTICLE CANNOT MOVE MORE THAN ONE CELL
 =  5.202    (WHEN MIN. R.F.=1)  AT K=   4, I=   1, J=  73

 MAXIMUM STEPSIZE WHICH MEETS STABILITY CRITERION OF THE ADVECTION TERM
 (FOR PURE FINITE-DIFFERENCE OPTION, MIXELM=0) 
 =  3.132    (WHEN MIN. R.F.=1)  AT K=   2, I=   1, J=  80


 TOTAL NUMBER OF POINT SOURCES/SINKS PRESENT IN THE FLOW MODEL =    62

 MAXIMUM STEPSIZE WHICH MEETS STABILITY CRITERION OF THE SINK & SOURCE TERM
 =  151.2    (WHEN MIN. R.F.=1)  AT K=   2, I=   1, J= 120

 MAXIMUM STEPSIZE WHICH MEETS STABILITY CRITERION OF THE DISPERSION TERM
 =  20.29    (WHEN MIN. R.F.=1)  AT K=   1, I=   1, J=  31
     1 CALLS TO GCG PACKAGE FOR TRANSPORT TIME STEP   2 IN FLOW TIME STEP 174 STRESS PERIOD   1
     6 TOTAL ITERATIONS
 
 SOLVING FOR HEAD 
 FLOW MODEL IS TRANSIENT
 FLOW MODEL CONTAINS CONSTANT-HEAD CELLS


 MAXIMUM STEPSIZE DURING WHICH ANY PARTICLE CANNOT MOVE MORE THAN ONE CELL
 =  5.016    (WHEN MIN. R.F.=1)  AT K=   4, I=   1, J=  73

 MAXIMUM STEPSIZE WHICH MEETS STABILITY CRITERION OF THE ADVECTION TERM
 (FOR PURE FINITE-DIFFERENCE OPTION, MIXELM=0) 
 =  3.273    (WHEN MIN. R.F.=1)  AT K=   2, I=   1, J=  80


 TOTAL NUMBER OF POINT SOURCES/SINKS PRESENT IN THE FLOW MODEL =    62

 MAXIMUM STEPSIZE WHICH MEETS STABILITY CRITERION OF THE SINK & SOURCE TERM
 =  153.9    (WHEN MIN. R.F.=1)  AT K=   2, I=   1, J= 120

 MAXIMUM STEPSIZE WHICH MEETS STABILITY CRITERION OF THE DISPERSION TERM
 =  20.29    (WHEN MIN. R.F.=1)  AT K=   1, I=   1, J=  31
     1 CALLS TO GCG PACKAGE FOR TRANSPORT TIME STEP   3 IN FLOW TIME STEP 174 STRESS PERIOD   1
     6 TOTAL ITERATIONS
 
 SOLVING FOR HEAD 
 FLOW MODEL IS TRANSIENT
 FLOW MODEL CONTAINS CONSTANT-HEAD CELLS


 MAXIMUM STEPSIZE DURING WHICH ANY PARTICLE CANNOT MOVE MORE THAN ONE CELL
 =  4.896    (WHEN MIN. R.F.=1)  AT K=   4, I=   1, J=  73

 MAXIMUM STEPSIZE WHICH MEETS STABILITY CRITERION OF THE ADVECTION TERM
 (FOR PURE FINITE-DIFFERENCE OPTION, MIXELM=0) 
 =  3.450    (WHEN MIN. R.F.=1)  AT K=   2, I=   1, J=  79


 TOTAL NUMBER OF POINT SOURCES/SINKS PRESENT IN THE FLOW MODEL =    62

 MAXIMUM STEPSIZE WHICH MEETS STABILITY CRITERION OF THE SINK & SOURCE TERM
 =  156.5    (WHEN MIN. R.F.=1)  AT K=   2, I=   1, J= 120

 MAXIMUM STEPSIZE WHICH MEETS STABILITY CRITERION OF THE DISPERSION TERM
 =  20.29    (WHEN MIN. R.F.=1)  AT K=   1, I=   1, J=  31
     1 CALLS TO GCG PACKAGE FOR TRANSPORT TIME STEP   4 IN FLOW TIME STEP 174 STRESS PERIOD   1
     6 TOTAL ITERATIONS
 
 SOLVING FOR HEAD 
 FLOW MODEL IS TRANSIENT
 FLOW MODEL CONTAINS CONSTANT-HEAD CELLS


 MAXIMUM STEPSIZE DURING WHICH ANY PARTICLE CANNOT MOVE MORE THAN ONE CELL
 =  4.831    (WHEN MIN. R.F.=1)  AT K=   4, I=   1, J=  73

 MAXIMUM STEPSIZE WHICH MEETS STABILITY CRITERION OF THE ADVECTION TERM
 (FOR PURE FINITE-DIFFERENCE OPTION, MIXELM=0) 
 =  3.210    (WHEN MIN. R.F.=1)  AT K=   2, I=   1, J=  79


 TOTAL NUMBER OF POINT SOURCES/SINKS PRESENT IN THE FLOW MODEL =    62

 MAXIMUM STEPSIZE WHICH MEETS STABILITY CRITERION OF THE SINK & SOURCE TERM
 =  144.5    (WHEN MIN. R.F.=1)  AT K=   2, I=   1, J= 120

 MAXIMUM STEPSIZE WHICH MEETS STABILITY CRITERION OF THE DISPERSION TERM
 =  20.29    (WHEN MIN. R.F.=1)  AT K=   1, I=   1, J=  31
     1 CALLS TO GCG PACKAGE FOR TRANSPORT TIME STEP   5 IN FLOW TIME STEP 174 STRESS PERIOD   1
     4 TOTAL ITERATIONS
  MAXIMUM CONCENTRATION CHANGES FOR EACH ITERATION:
  MAX. CHANGE LAYER,ROW,COL MAX. CHANGE LAYER,ROW,COL MAX. CHANGE LAYER,ROW,COL MAX. CHANGE LAYER,ROW,COL MAX. CHANGE LAYER,ROW,COL
 ------------------------------------------------------------------------------------------------------------------------------------
   0.4389E-02 (  2,  1, 81)  0.2570E-04 (  2,  1, 79)  0.1932E-06 (  3,  1, 79)  0.1243E-08 (  4,  1, 79)


                                          ================================================
                                                         FROM TIME =   1740.0     TO    1750.0    

 
 SOLVING FOR HEAD 
 FLOW MODEL IS TRANSIENT
 FLOW MODEL CONTAINS CONSTANT-HEAD CELLS


 MAXIMUM STEPSIZE DURING WHICH ANY PARTICLE CANNOT MOVE MORE THAN ONE CELL
 =  4.827    (WHEN MIN. R.F.=1)  AT K=   4, I=   1, J=  73

 MAXIMUM STEPSIZE WHICH MEETS STABILITY CRITERION OF THE ADVECTION TERM
 (FOR PURE FINITE-DIFFERENCE OPTION, MIXELM=0) 
 =  3.194    (WHEN MIN. R.F.=1)  AT K=   2, I=   1, J=  79


 TOTAL NUMBER OF POINT SOURCES/SINKS PRESENT IN THE FLOW MODEL =    62

 MAXIMUM STEPSIZE WHICH MEETS STABILITY CRITERION OF THE SINK & SOURCE TERM
 =  166.6    (WHEN MIN. R.F.=1)  AT K=   2, I=   1, J= 120

 MAXIMUM STEPSIZE WHICH MEETS STABILITY CRITERION OF THE DISPERSION TERM
 =  20.29    (WHEN MIN. R.F.=1)  AT K=   1, I=   1, J=  31


     1 CALLS TO GCG PACKAGE FOR TRANSPORT TIME STEP   1 IN FLOW TIME STEP 175 STRESS PERIOD   1
     6 TOTAL ITERATIONS

 NO OUTPUT CONTROL FOR STRESS PERIOD    1   TIME STEP 175
 
 SOLVING FOR HEAD 
 FLOW MODEL IS TRANSIENT
 FLOW MODEL CONTAINS CONSTANT-HEAD CELLS


 MAXIMUM STEPSIZE DURING WHICH ANY PARTICLE CANNOT MOVE MORE THAN ONE CELL
 =  4.825    (WHEN MIN. R.F.=1)  AT K=   4, I=   1, J=  73

 MAXIMUM STEPSIZE WHICH MEETS STABILITY CRITERION OF THE ADVECTION TERM
 (FOR PURE FINITE-DIFFERENCE OPTION, MIXELM=0) 
 =  3.121    (WHEN MIN. R.F.=1)  AT K=   2, I=   1, J=  79


 TOTAL NUMBER OF POINT SOURCES/SINKS PRESENT IN THE FLOW MODEL =    62

 MAXIMUM STEPSIZE WHICH MEETS STABILITY CRITERION OF THE SINK & SOURCE TERM
 =  158.9    (WHEN MIN. R.F.=1)  AT K=   2, I=   1, J= 120

 MAXIMUM STEPSIZE WHICH MEETS STABILITY CRITERION OF THE DISPERSION TERM
 =  20.29    (WHEN MIN. R.F.=1)  AT K=   1, I=   1, J=  31
     1 CALLS TO GCG PACKAGE FOR TRANSPORT TIME STEP   2 IN FLOW TIME STEP 175 STRESS PERIOD   1
     6 TOTAL ITERATIONS
 
 SOLVING FOR HEAD 
 FLOW MODEL IS TRANSIENT
 FLOW MODEL CONTAINS CONSTANT-HEAD CELLS


 MAXIMUM STEPSIZE DURING WHICH ANY PARTICLE CANNOT MOVE MORE THAN ONE CELL
 =  4.877    (WHEN MIN. R.F.=1)  AT K=   4, I=   1, J=  73

 MAXIMUM STEPSIZE WHICH MEETS STABILITY CRITERION OF THE ADVECTION TERM
 (FOR PURE FINITE-DIFFERENCE OPTION, MIXELM=0) 
 =  3.169    (WHEN MIN. R.F.=1)  AT K=   2, I=   1, J=  79


 TOTAL NUMBER OF POINT SOURCES/SINKS PRESENT IN THE FLOW MODEL =    62

 MAXIMUM STEPSIZE WHICH MEETS STABILITY CRITERION OF THE SINK & SOURCE TERM
 =  158.7    (WHEN MIN. R.F.=1)  AT K=   2, I=   1, J= 120

 MAXIMUM STEPSIZE WHICH MEETS STABILITY CRITERION OF THE DISPERSION TERM
 =  20.29    (WHEN MIN. R.F.=1)  AT K=   1, I=   1, J=  31
     1 CALLS TO GCG PACKAGE FOR TRANSPORT TIME STEP   3 IN FLOW TIME STEP 175 STRESS PERIOD   1
     6 TOTAL ITERATIONS
 
 SOLVING FOR HEAD 
 FLOW MODEL IS TRANSIENT
 FLOW MODEL CONTAINS CONSTANT-HEAD CELLS


 MAXIMUM STEPSIZE DURING WHICH ANY PARTICLE CANNOT MOVE MORE THAN ONE CELL
 =  4.963    (WHEN MIN. R.F.=1)  AT K=   4, I=   1, J=  73

 MAXIMUM STEPSIZE WHICH MEETS STABILITY CRITERION OF THE ADVECTION TERM
 (FOR PURE FINITE-DIFFERENCE OPTION, MIXELM=0) 
 =  3.377    (WHEN MIN. R.F.=1)  AT K=   2, I=   1, J=  79


 TOTAL NUMBER OF POINT SOURCES/SINKS PRESENT IN THE FLOW MODEL =    62

 MAXIMUM STEPSIZE WHICH MEETS STABILITY CRITERION OF THE SINK & SOURCE TERM
 =  160.7    (WHEN MIN. R.F.=1)  AT K=   2, I=   1, J= 120

 MAXIMUM STEPSIZE WHICH MEETS STABILITY CRITERION OF THE DISPERSION TERM
 =  20.29    (WHEN MIN. R.F.=1)  AT K=   1, I=   1, J=  31
     1 CALLS TO GCG PACKAGE FOR TRANSPORT TIME STEP   4 IN FLOW TIME STEP 175 STRESS PERIOD   1
     6 TOTAL ITERATIONS
 
 SOLVING FOR HEAD 
 FLOW MODEL IS TRANSIENT
 FLOW MODEL CONTAINS CONSTANT-HEAD CELLS


 MAXIMUM STEPSIZE DURING WHICH ANY PARTICLE CANNOT MOVE MORE THAN ONE CELL
 =  5.050    (WHEN MIN. R.F.=1)  AT K=   5, I=   1, J=  73

 MAXIMUM STEPSIZE WHICH MEETS STABILITY CRITERION OF THE ADVECTION TERM
 (FOR PURE FINITE-DIFFERENCE OPTION, MIXELM=0) 
 =  3.459    (WHEN MIN. R.F.=1)  AT K=   2, I=   1, J=  78


 TOTAL NUMBER OF POINT SOURCES/SINKS PRESENT IN THE FLOW MODEL =    62

 MAXIMUM STEPSIZE WHICH MEETS STABILITY CRITERION OF THE SINK & SOURCE TERM
 =  152.6    (WHEN MIN. R.F.=1)  AT K=   2, I=   1, J= 120

 MAXIMUM STEPSIZE WHICH MEETS STABILITY CRITERION OF THE DISPERSION TERM
 =  20.29    (WHEN MIN. R.F.=1)  AT K=   1, I=   1, J=  31
     1 CALLS TO GCG PACKAGE FOR TRANSPORT TIME STEP   5 IN FLOW TIME STEP 175 STRESS PERIOD   1
     4 TOTAL ITERATIONS
  MAXIMUM CONCENTRATION CHANGES FOR EACH ITERATION:
  MAX. CHANGE LAYER,ROW,COL MAX. CHANGE LAYER,ROW,COL MAX. CHANGE LAYER,ROW,COL MAX. CHANGE LAYER,ROW,COL MAX. CHANGE LAYER,ROW,COL
 ------------------------------------------------------------------------------------------------------------------------------------
   0.6441E-02 (  2,  1, 80)  0.6035E-04 (  2,  1, 78)  0.6917E-06 (  3,  1, 78)  0.6182E-08 (  3,  1, 75)


                                          ================================================
                                                         FROM TIME =   1750.0     TO    1760.0    

 
 SOLVING FOR HEAD 
 FLOW MODEL IS TRANSIENT
 FLOW MODEL CONTAINS CONSTANT-HEAD CELLS


 MAXIMUM STEPSIZE DURING WHICH ANY PARTICLE CANNOT MOVE MORE THAN ONE CELL
 =  5.066    (WHEN MIN. R.F.=1)  AT K=   5, I=   1, J=  73

 MAXIMUM STEPSIZE WHICH MEETS STABILITY CRITERION OF THE ADVECTION TERM
 (FOR PURE FINITE-DIFFERENCE OPTION, MIXELM=0) 
 =  3.415    (WHEN MIN. R.F.=1)  AT K=   2, I=   1, J=  78


 TOTAL NUMBER OF POINT SOURCES/SINKS PRESENT IN THE FLOW MODEL =    62

 MAXIMUM STEPSIZE WHICH MEETS STABILITY CRITERION OF THE SINK & SOURCE TERM
 =  182.4    (WHEN MIN. R.F.=1)  AT K=   2, I=   1, J= 120

 MAXIMUM STEPSIZE WHICH MEETS STABILITY CRITERION OF THE DISPERSION TERM
 =  20.29    (WHEN MIN. R.F.=1)  AT K=   1, I=   1, J=  31


     1 CALLS TO GCG PACKAGE FOR TRANSPORT TIME STEP   1 IN FLOW TIME STEP 176 STRESS PERIOD   1
     6 TOTAL ITERATIONS

 NO OUTPUT CONTROL FOR STRESS PERIOD    1   TIME STEP 176
 
 SOLVING FOR HEAD 
 FLOW MODEL IS TRANSIENT
 FLOW MODEL CONTAINS CONSTANT-HEAD CELLS


 MAXIMUM STEPSIZE DURING WHICH ANY PARTICLE CANNOT MOVE MORE THAN ONE CELL
 =  5.169    (WHEN MIN. R.F.=1)  AT K=   5, I=   1, J=  73

 MAXIMUM STEPSIZE WHICH MEETS STABILITY CRITERION OF THE ADVECTION TERM
 (FOR PURE FINITE-DIFFERENCE OPTION, MIXELM=0) 
 =  3.246    (WHEN MIN. R.F.=1)  AT K=   2, I=   1, J=  78


 TOTAL NUMBER OF POINT SOURCES/SINKS PRESENT IN THE FLOW MODEL =    62

 MAXIMUM STEPSIZE WHICH MEETS STABILITY CRITERION OF THE SINK & SOURCE TERM
 =  170.6    (WHEN MIN. R.F.=1)  AT K=   2, I=   1, J= 120

 MAXIMUM STEPSIZE WHICH MEETS STABILITY CRITERION OF THE DISPERSION TERM
 =  20.29    (WHEN MIN. R.F.=1)  AT K=   1, I=   1, J=  31
     1 CALLS TO GCG PACKAGE FOR TRANSPORT TIME STEP   2 IN FLOW TIME STEP 176 STRESS PERIOD   1
     6 TOTAL ITERATIONS
 
 SOLVING FOR HEAD 
 FLOW MODEL IS TRANSIENT
 FLOW MODEL CONTAINS CONSTANT-HEAD CELLS


 MAXIMUM STEPSIZE DURING WHICH ANY PARTICLE CANNOT MOVE MORE THAN ONE CELL
 =  5.305    (WHEN MIN. R.F.=1)  AT K=   5, I=   1, J=  73

 MAXIMUM STEPSIZE WHICH MEETS STABILITY CRITERION OF THE ADVECTION TERM
 (FOR PURE FINITE-DIFFERENCE OPTION, MIXELM=0) 
 =  3.215    (WHEN MIN. R.F.=1)  AT K=   2, I=   1, J=  78


 TOTAL NUMBER OF POINT SOURCES/SINKS PRESENT IN THE FLOW MODEL =    62

 MAXIMUM STEPSIZE WHICH MEETS STABILITY CRITERION OF THE SINK & SOURCE TERM
 =  165.8    (WHEN MIN. R.F.=1)  AT K=   2, I=   1, J= 120

 MAXIMUM STEPSIZE WHICH MEETS STABILITY CRITERION OF THE DISPERSION TERM
 =  20.29    (WHEN MIN. R.F.=1)  AT K=   1, I=   1, J=  31
     1 CALLS TO GCG PACKAGE FOR TRANSPORT TIME STEP   3 IN FLOW TIME STEP 176 STRESS PERIOD   1
     6 TOTAL ITERATIONS
 
 SOLVING FOR HEAD 
 FLOW MODEL IS TRANSIENT
 FLOW MODEL CONTAINS CONSTANT-HEAD CELLS


 MAXIMUM STEPSIZE DURING WHICH ANY PARTICLE CANNOT MOVE MORE THAN ONE CELL
 =  5.407    (WHEN MIN. R.F.=1)  AT K=   6, I=   1, J=  73

 MAXIMUM STEPSIZE WHICH MEETS STABILITY CRITERION OF THE ADVECTION TERM
 (FOR PURE FINITE-DIFFERENCE OPTION, MIXELM=0) 
 =  3.306    (WHEN MIN. R.F.=1)  AT K=   2, I=   1, J=  78


 TOTAL NUMBER OF POINT SOURCES/SINKS PRESENT IN THE FLOW MODEL =    62

 MAXIMUM STEPSIZE WHICH MEETS STABILITY CRITERION OF THE SINK & SOURCE TERM
 =  166.2    (WHEN MIN. R.F.=1)  AT K=   2, I=   1, J= 120

 MAXIMUM STEPSIZE WHICH MEETS STABILITY CRITERION OF THE DISPERSION TERM
 =  20.29    (WHEN MIN. R.F.=1)  AT K=   1, I=   1, J=  31
     1 CALLS TO GCG PACKAGE FOR TRANSPORT TIME STEP   4 IN FLOW TIME STEP 176 STRESS PERIOD   1
     6 TOTAL ITERATIONS
  MAXIMUM CONCENTRATION CHANGES FOR EACH ITERATION:
  MAX. CHANGE LAYER,ROW,COL MAX. CHANGE LAYER,ROW,COL MAX. CHANGE LAYER,ROW,COL MAX. CHANGE LAYER,ROW,COL MAX. CHANGE LAYER,ROW,COL
 ------------------------------------------------------------------------------------------------------------------------------------
   0.3609E-01 (  2,  1, 79)  0.1187E-02 (  2,  1, 77)  0.6415E-04 (  3,  1, 77)  0.4468E-05 (  3,  1, 75)  0.1703E-06 (  4,  1, 75)
   0.9956E-08 (  4,  1, 45)


                                          ================================================
                                                         FROM TIME =   1760.0     TO    1770.0    

 
 SOLVING FOR HEAD 
 FLOW MODEL IS TRANSIENT
 FLOW MODEL CONTAINS CONSTANT-HEAD CELLS


 MAXIMUM STEPSIZE DURING WHICH ANY PARTICLE CANNOT MOVE MORE THAN ONE CELL
 =  5.521    (WHEN MIN. R.F.=1)  AT K=   6, I=   1, J=  73

 MAXIMUM STEPSIZE WHICH MEETS STABILITY CRITERION OF THE ADVECTION TERM
 (FOR PURE FINITE-DIFFERENCE OPTION, MIXELM=0) 
 =  3.306    (WHEN MIN. R.F.=1)  AT K=   2, I=   1, J=  41


 TOTAL NUMBER OF POINT SOURCES/SINKS PRESENT IN THE FLOW MODEL =    62

 MAXIMUM STEPSIZE WHICH MEETS STABILITY CRITERION OF THE SINK & SOURCE TERM
 =  158.0    (WHEN MIN. R.F.=1)  AT K=   2, I=   1, J= 120

 MAXIMUM STEPSIZE WHICH MEETS STABILITY CRITERION OF THE DISPERSION TERM
 =  20.29    (WHEN MIN. R.F.=1)  AT K=   1, I=   1, J=  31


     1 CALLS TO GCG PACKAGE FOR TRANSPORT TIME STEP   1 IN FLOW TIME STEP 177 STRESS PERIOD   1
     4 TOTAL ITERATIONS

 NO OUTPUT CONTROL FOR STRESS PERIOD    1   TIME STEP 177



 >>>>>>>>>>>>>>>>>>>>>>>>>>>>>>>>>>>>>>>>>>>>>>>>>>>>>>>FOR COMPONENT NO. 01<<<<<<<<<<<<<<<<<<<<<<<<<<<<<<<<<<<<<<<<<<<<<<<<<<<<<<<


                                            -------------------------------------------
                                                      TRANSPORT STEP NO.    1
                                            -------------------------------------------

 TOTAL ELAPSED TIME SINCE BEGINNING OF SIMULATION =   1760.700    D   
 .....................................................................

                     CUMULATIVE MASS BUDGETS AT END OF TRANSPORT STEP    1, TIME STEP  177, STRESS PERIOD    1
                     ------------------------------------------------------------------------------------------

                                                             IN                           OUT
                                                      ----------------             ----------------
                               CONSTANT CONCENTRATION:    1288598.                   -462132.5    
                                        CONSTANT HEAD:    0.000000                  -0.1087660E-01
                               MASS STOR (FLOW MODEL):    157.7768                   -260.1408    
                                MASS STORAGE (SOLUTE):    1814821.                   -2641185.    
                            ---------------------------------------------------------------------------
                                              [TOTAL]:    3103577.     KG            -3103577.     KG  

                                                          NET (IN - OUT):   0.6091177E-02
                                                   DISCREPANCY (PERCENT):   0.1962631E-06
 
 SOLVING FOR HEAD 
 FLOW MODEL IS TRANSIENT
 FLOW MODEL CONTAINS CONSTANT-HEAD CELLS


 MAXIMUM STEPSIZE DURING WHICH ANY PARTICLE CANNOT MOVE MORE THAN ONE CELL
 =  5.561    (WHEN MIN. R.F.=1)  AT K=   6, I=   1, J=  73

 MAXIMUM STEPSIZE WHICH MEETS STABILITY CRITERION OF THE ADVECTION TERM
 (FOR PURE FINITE-DIFFERENCE OPTION, MIXELM=0) 
 =  3.320    (WHEN MIN. R.F.=1)  AT K=   2, I=   1, J=  41


 TOTAL NUMBER OF POINT SOURCES/SINKS PRESENT IN THE FLOW MODEL =    62

 MAXIMUM STEPSIZE WHICH MEETS STABILITY CRITERION OF THE SINK & SOURCE TERM
 =  181.7    (WHEN MIN. R.F.=1)  AT K=   2, I=   1, J= 120

 MAXIMUM STEPSIZE WHICH MEETS STABILITY CRITERION OF THE DISPERSION TERM
 =  20.29    (WHEN MIN. R.F.=1)  AT K=   1, I=   1, J=  31
     1 CALLS TO GCG PACKAGE FOR TRANSPORT TIME STEP   2 IN FLOW TIME STEP 177 STRESS PERIOD   1
     6 TOTAL ITERATIONS
 
 SOLVING FOR HEAD 
 FLOW MODEL IS TRANSIENT
 FLOW MODEL CONTAINS CONSTANT-HEAD CELLS


 MAXIMUM STEPSIZE DURING WHICH ANY PARTICLE CANNOT MOVE MORE THAN ONE CELL
 =  5.672    (WHEN MIN. R.F.=1)  AT K=   7, I=   1, J=  73

 MAXIMUM STEPSIZE WHICH MEETS STABILITY CRITERION OF THE ADVECTION TERM
 (FOR PURE FINITE-DIFFERENCE OPTION, MIXELM=0) 
 =  3.479    (WHEN MIN. R.F.=1)  AT K=   2, I=   1, J=  41


 TOTAL NUMBER OF POINT SOURCES/SINKS PRESENT IN THE FLOW MODEL =    62

 MAXIMUM STEPSIZE WHICH MEETS STABILITY CRITERION OF THE SINK & SOURCE TERM
 =  169.7    (WHEN MIN. R.F.=1)  AT K=   2, I=   1, J= 120

 MAXIMUM STEPSIZE WHICH MEETS STABILITY CRITERION OF THE DISPERSION TERM
 =  20.29    (WHEN MIN. R.F.=1)  AT K=   1, I=   1, J=  31
     1 CALLS TO GCG PACKAGE FOR TRANSPORT TIME STEP   3 IN FLOW TIME STEP 177 STRESS PERIOD   1
     6 TOTAL ITERATIONS
 
 SOLVING FOR HEAD 
 FLOW MODEL IS TRANSIENT
 FLOW MODEL CONTAINS CONSTANT-HEAD CELLS


 MAXIMUM STEPSIZE DURING WHICH ANY PARTICLE CANNOT MOVE MORE THAN ONE CELL
 =  5.738    (WHEN MIN. R.F.=1)  AT K=   4, I=   1, J=  49

 MAXIMUM STEPSIZE WHICH MEETS STABILITY CRITERION OF THE ADVECTION TERM
 (FOR PURE FINITE-DIFFERENCE OPTION, MIXELM=0) 
 =  3.338    (WHEN MIN. R.F.=1)  AT K=   2, I=   1, J=  77


 TOTAL NUMBER OF POINT SOURCES/SINKS PRESENT IN THE FLOW MODEL =    62

 MAXIMUM STEPSIZE WHICH MEETS STABILITY CRITERION OF THE SINK & SOURCE TERM
 =  171.0    (WHEN MIN. R.F.=1)  AT K=   2, I=   1, J= 120

 MAXIMUM STEPSIZE WHICH MEETS STABILITY CRITERION OF THE DISPERSION TERM
 =  20.29    (WHEN MIN. R.F.=1)  AT K=   1, I=   1, J=  31
     1 CALLS TO GCG PACKAGE FOR TRANSPORT TIME STEP   4 IN FLOW TIME STEP 177 STRESS PERIOD   1
     6 TOTAL ITERATIONS
 
 SOLVING FOR HEAD 
 FLOW MODEL IS TRANSIENT
 FLOW MODEL CONTAINS CONSTANT-HEAD CELLS


 MAXIMUM STEPSIZE DURING WHICH ANY PARTICLE CANNOT MOVE MORE THAN ONE CELL
 =  5.469    (WHEN MIN. R.F.=1)  AT K=   4, I=   1, J=  49

 MAXIMUM STEPSIZE WHICH MEETS STABILITY CRITERION OF THE ADVECTION TERM
 (FOR PURE FINITE-DIFFERENCE OPTION, MIXELM=0) 
 =  3.266    (WHEN MIN. R.F.=1)  AT K=   2, I=   1, J=  42


 TOTAL NUMBER OF POINT SOURCES/SINKS PRESENT IN THE FLOW MODEL =    62

 MAXIMUM STEPSIZE WHICH MEETS STABILITY CRITERION OF THE SINK & SOURCE TERM
 =  169.9    (WHEN MIN. R.F.=1)  AT K=   2, I=   1, J= 120

 MAXIMUM STEPSIZE WHICH MEETS STABILITY CRITERION OF THE DISPERSION TERM
 =  20.29    (WHEN MIN. R.F.=1)  AT K=   1, I=   1, J=  31
     1 CALLS TO GCG PACKAGE FOR TRANSPORT TIME STEP   5 IN FLOW TIME STEP 177 STRESS PERIOD   1
     5 TOTAL ITERATIONS
  MAXIMUM CONCENTRATION CHANGES FOR EACH ITERATION:
  MAX. CHANGE LAYER,ROW,COL MAX. CHANGE LAYER,ROW,COL MAX. CHANGE LAYER,ROW,COL MAX. CHANGE LAYER,ROW,COL MAX. CHANGE LAYER,ROW,COL
 ------------------------------------------------------------------------------------------------------------------------------------
   0.2474E-01 (  2,  1, 78)  0.6528E-03 (  2,  1, 78)  0.2103E-04 (  2,  1, 79)  0.8144E-06 (  4,  1, 43)  0.2948E-07 (  3,  1, 80)


                                          ================================================
                                                         FROM TIME =   1770.0     TO    1780.0    

 
 SOLVING FOR HEAD 
 FLOW MODEL IS TRANSIENT
 FLOW MODEL CONTAINS CONSTANT-HEAD CELLS


 MAXIMUM STEPSIZE DURING WHICH ANY PARTICLE CANNOT MOVE MORE THAN ONE CELL
 =  5.325    (WHEN MIN. R.F.=1)  AT K=   4, I=   1, J=  49

 MAXIMUM STEPSIZE WHICH MEETS STABILITY CRITERION OF THE ADVECTION TERM
 (FOR PURE FINITE-DIFFERENCE OPTION, MIXELM=0) 
 =  3.245    (WHEN MIN. R.F.=1)  AT K=   2, I=   1, J=  42


 TOTAL NUMBER OF POINT SOURCES/SINKS PRESENT IN THE FLOW MODEL =    62

 MAXIMUM STEPSIZE WHICH MEETS STABILITY CRITERION OF THE SINK & SOURCE TERM
 =  183.7    (WHEN MIN. R.F.=1)  AT K=   2, I=   1, J= 120

 MAXIMUM STEPSIZE WHICH MEETS STABILITY CRITERION OF THE DISPERSION TERM
 =  20.29    (WHEN MIN. R.F.=1)  AT K=   1, I=   1, J=  31


     1 CALLS TO GCG PACKAGE FOR TRANSPORT TIME STEP   1 IN FLOW TIME STEP 178 STRESS PERIOD   1
     6 TOTAL ITERATIONS

 NO OUTPUT CONTROL FOR STRESS PERIOD    1   TIME STEP 178
 
 SOLVING FOR HEAD 
 FLOW MODEL IS TRANSIENT
 FLOW MODEL CONTAINS CONSTANT-HEAD CELLS


 MAXIMUM STEPSIZE DURING WHICH ANY PARTICLE CANNOT MOVE MORE THAN ONE CELL
 =  5.170    (WHEN MIN. R.F.=1)  AT K=   4, I=   1, J=  49

 MAXIMUM STEPSIZE WHICH MEETS STABILITY CRITERION OF THE ADVECTION TERM
 (FOR PURE FINITE-DIFFERENCE OPTION, MIXELM=0) 
 =  3.299    (WHEN MIN. R.F.=1)  AT K=   2, I=   1, J=  42


 TOTAL NUMBER OF POINT SOURCES/SINKS PRESENT IN THE FLOW MODEL =    62

 MAXIMUM STEPSIZE WHICH MEETS STABILITY CRITERION OF THE SINK & SOURCE TERM
 =  180.2    (WHEN MIN. R.F.=1)  AT K=   2, I=   1, J= 120

 MAXIMUM STEPSIZE WHICH MEETS STABILITY CRITERION OF THE DISPERSION TERM
 =  20.29    (WHEN MIN. R.F.=1)  AT K=   1, I=   1, J=  31
     1 CALLS TO GCG PACKAGE FOR TRANSPORT TIME STEP   2 IN FLOW TIME STEP 178 STRESS PERIOD   1
     6 TOTAL ITERATIONS
 
 SOLVING FOR HEAD 
 FLOW MODEL IS TRANSIENT
 FLOW MODEL CONTAINS CONSTANT-HEAD CELLS


 MAXIMUM STEPSIZE DURING WHICH ANY PARTICLE CANNOT MOVE MORE THAN ONE CELL
 =  5.067    (WHEN MIN. R.F.=1)  AT K=   4, I=   1, J=  49

 MAXIMUM STEPSIZE WHICH MEETS STABILITY CRITERION OF THE ADVECTION TERM
 (FOR PURE FINITE-DIFFERENCE OPTION, MIXELM=0) 
 =  3.494    (WHEN MIN. R.F.=1)  AT K=   2, I=   1, J=  42


 TOTAL NUMBER OF POINT SOURCES/SINKS PRESENT IN THE FLOW MODEL =    62

 MAXIMUM STEPSIZE WHICH MEETS STABILITY CRITERION OF THE SINK & SOURCE TERM
 =  182.7    (WHEN MIN. R.F.=1)  AT K=   2, I=   1, J= 120

 MAXIMUM STEPSIZE WHICH MEETS STABILITY CRITERION OF THE DISPERSION TERM
 =  20.29    (WHEN MIN. R.F.=1)  AT K=   1, I=   1, J=  31
     1 CALLS TO GCG PACKAGE FOR TRANSPORT TIME STEP   3 IN FLOW TIME STEP 178 STRESS PERIOD   1
     6 TOTAL ITERATIONS
 
 SOLVING FOR HEAD 
 FLOW MODEL IS TRANSIENT
 FLOW MODEL CONTAINS CONSTANT-HEAD CELLS


 MAXIMUM STEPSIZE DURING WHICH ANY PARTICLE CANNOT MOVE MORE THAN ONE CELL
 =  5.009    (WHEN MIN. R.F.=1)  AT K=   4, I=   1, J=  49

 MAXIMUM STEPSIZE WHICH MEETS STABILITY CRITERION OF THE ADVECTION TERM
 (FOR PURE FINITE-DIFFERENCE OPTION, MIXELM=0) 
 =  3.518    (WHEN MIN. R.F.=1)  AT K=   2, I=   1, J=  43


 TOTAL NUMBER OF POINT SOURCES/SINKS PRESENT IN THE FLOW MODEL =    62

 MAXIMUM STEPSIZE WHICH MEETS STABILITY CRITERION OF THE SINK & SOURCE TERM
 =  184.8    (WHEN MIN. R.F.=1)  AT K=   2, I=   1, J= 120

 MAXIMUM STEPSIZE WHICH MEETS STABILITY CRITERION OF THE DISPERSION TERM
 =  20.29    (WHEN MIN. R.F.=1)  AT K=   1, I=   1, J=  31
     1 CALLS TO GCG PACKAGE FOR TRANSPORT TIME STEP   4 IN FLOW TIME STEP 178 STRESS PERIOD   1
     6 TOTAL ITERATIONS
 
 SOLVING FOR HEAD 
 FLOW MODEL IS TRANSIENT
 FLOW MODEL CONTAINS CONSTANT-HEAD CELLS


 MAXIMUM STEPSIZE DURING WHICH ANY PARTICLE CANNOT MOVE MORE THAN ONE CELL
 =  4.994    (WHEN MIN. R.F.=1)  AT K=   4, I=   1, J=  49

 MAXIMUM STEPSIZE WHICH MEETS STABILITY CRITERION OF THE ADVECTION TERM
 (FOR PURE FINITE-DIFFERENCE OPTION, MIXELM=0) 
 =  3.337    (WHEN MIN. R.F.=1)  AT K=   2, I=   1, J=  43


 TOTAL NUMBER OF POINT SOURCES/SINKS PRESENT IN THE FLOW MODEL =    62

 MAXIMUM STEPSIZE WHICH MEETS STABILITY CRITERION OF THE SINK & SOURCE TERM
 =  164.8    (WHEN MIN. R.F.=1)  AT K=   2, I=   1, J= 120

 MAXIMUM STEPSIZE WHICH MEETS STABILITY CRITERION OF THE DISPERSION TERM
 =  20.29    (WHEN MIN. R.F.=1)  AT K=   1, I=   1, J=  31
     1 CALLS TO GCG PACKAGE FOR TRANSPORT TIME STEP   5 IN FLOW TIME STEP 178 STRESS PERIOD   1
     3 TOTAL ITERATIONS
  MAXIMUM CONCENTRATION CHANGES FOR EACH ITERATION:
  MAX. CHANGE LAYER,ROW,COL MAX. CHANGE LAYER,ROW,COL MAX. CHANGE LAYER,ROW,COL MAX. CHANGE LAYER,ROW,COL MAX. CHANGE LAYER,ROW,COL
 ------------------------------------------------------------------------------------------------------------------------------------
   0.2730E-03 (  2,  1, 41)  0.1274E-06 (  2,  1, 76)  0.5574E-10 (  3,  1, 76)


                                          ================================================
                                                         FROM TIME =   1780.0     TO    1790.0    

 
 SOLVING FOR HEAD 
 FLOW MODEL IS TRANSIENT
 FLOW MODEL CONTAINS CONSTANT-HEAD CELLS


 MAXIMUM STEPSIZE DURING WHICH ANY PARTICLE CANNOT MOVE MORE THAN ONE CELL
 =  4.995    (WHEN MIN. R.F.=1)  AT K=   4, I=   1, J=  49

 MAXIMUM STEPSIZE WHICH MEETS STABILITY CRITERION OF THE ADVECTION TERM
 (FOR PURE FINITE-DIFFERENCE OPTION, MIXELM=0) 
 =  3.335    (WHEN MIN. R.F.=1)  AT K=   2, I=   1, J=  43


 TOTAL NUMBER OF POINT SOURCES/SINKS PRESENT IN THE FLOW MODEL =    62

 MAXIMUM STEPSIZE WHICH MEETS STABILITY CRITERION OF THE SINK & SOURCE TERM
 =  205.0    (WHEN MIN. R.F.=1)  AT K=   2, I=   1, J= 120

 MAXIMUM STEPSIZE WHICH MEETS STABILITY CRITERION OF THE DISPERSION TERM
 =  20.29    (WHEN MIN. R.F.=1)  AT K=   1, I=   1, J=  31


     1 CALLS TO GCG PACKAGE FOR TRANSPORT TIME STEP   1 IN FLOW TIME STEP 179 STRESS PERIOD   1
     6 TOTAL ITERATIONS

 NO OUTPUT CONTROL FOR STRESS PERIOD    1   TIME STEP 179
 
 SOLVING FOR HEAD 
 FLOW MODEL IS TRANSIENT
 FLOW MODEL CONTAINS CONSTANT-HEAD CELLS


 MAXIMUM STEPSIZE DURING WHICH ANY PARTICLE CANNOT MOVE MORE THAN ONE CELL
 =  5.021    (WHEN MIN. R.F.=1)  AT K=   4, I=   1, J=  49

 MAXIMUM STEPSIZE WHICH MEETS STABILITY CRITERION OF THE ADVECTION TERM
 (FOR PURE FINITE-DIFFERENCE OPTION, MIXELM=0) 
 =  3.309    (WHEN MIN. R.F.=1)  AT K=   2, I=   1, J=  43


 TOTAL NUMBER OF POINT SOURCES/SINKS PRESENT IN THE FLOW MODEL =    62

 MAXIMUM STEPSIZE WHICH MEETS STABILITY CRITERION OF THE SINK & SOURCE TERM
 =  197.8    (WHEN MIN. R.F.=1)  AT K=   2, I=   1, J= 120

 MAXIMUM STEPSIZE WHICH MEETS STABILITY CRITERION OF THE DISPERSION TERM
 =  20.29    (WHEN MIN. R.F.=1)  AT K=   1, I=   1, J=  31
     1 CALLS TO GCG PACKAGE FOR TRANSPORT TIME STEP   2 IN FLOW TIME STEP 179 STRESS PERIOD   1
     6 TOTAL ITERATIONS
 
 SOLVING FOR HEAD 
 FLOW MODEL IS TRANSIENT
 FLOW MODEL CONTAINS CONSTANT-HEAD CELLS


 MAXIMUM STEPSIZE DURING WHICH ANY PARTICLE CANNOT MOVE MORE THAN ONE CELL
 =  5.074    (WHEN MIN. R.F.=1)  AT K=   4, I=   1, J=  49

 MAXIMUM STEPSIZE WHICH MEETS STABILITY CRITERION OF THE ADVECTION TERM
 (FOR PURE FINITE-DIFFERENCE OPTION, MIXELM=0) 
 =  3.391    (WHEN MIN. R.F.=1)  AT K=   2, I=   1, J=  43


 TOTAL NUMBER OF POINT SOURCES/SINKS PRESENT IN THE FLOW MODEL =    62

 MAXIMUM STEPSIZE WHICH MEETS STABILITY CRITERION OF THE SINK & SOURCE TERM
 =  199.8    (WHEN MIN. R.F.=1)  AT K=   2, I=   1, J= 120

 MAXIMUM STEPSIZE WHICH MEETS STABILITY CRITERION OF THE DISPERSION TERM
 =  20.29    (WHEN MIN. R.F.=1)  AT K=   1, I=   1, J=  31
     1 CALLS TO GCG PACKAGE FOR TRANSPORT TIME STEP   3 IN FLOW TIME STEP 179 STRESS PERIOD   1
     6 TOTAL ITERATIONS
 
 SOLVING FOR HEAD 
 FLOW MODEL IS TRANSIENT
 FLOW MODEL CONTAINS CONSTANT-HEAD CELLS


 MAXIMUM STEPSIZE DURING WHICH ANY PARTICLE CANNOT MOVE MORE THAN ONE CELL
 =  5.155    (WHEN MIN. R.F.=1)  AT K=   4, I=   1, J=  49

 MAXIMUM STEPSIZE WHICH MEETS STABILITY CRITERION OF THE ADVECTION TERM
 (FOR PURE FINITE-DIFFERENCE OPTION, MIXELM=0) 
 =  3.630    (WHEN MIN. R.F.=1)  AT K=   2, I=   1, J=  43


 TOTAL NUMBER OF POINT SOURCES/SINKS PRESENT IN THE FLOW MODEL =    62

 MAXIMUM STEPSIZE WHICH MEETS STABILITY CRITERION OF THE SINK & SOURCE TERM
 =  200.6    (WHEN MIN. R.F.=1)  AT K=   2, I=   1, J= 120

 MAXIMUM STEPSIZE WHICH MEETS STABILITY CRITERION OF THE DISPERSION TERM
 =  20.29    (WHEN MIN. R.F.=1)  AT K=   1, I=   1, J=  31
     1 CALLS TO GCG PACKAGE FOR TRANSPORT TIME STEP   4 IN FLOW TIME STEP 179 STRESS PERIOD   1
     6 TOTAL ITERATIONS
  MAXIMUM CONCENTRATION CHANGES FOR EACH ITERATION:
  MAX. CHANGE LAYER,ROW,COL MAX. CHANGE LAYER,ROW,COL MAX. CHANGE LAYER,ROW,COL MAX. CHANGE LAYER,ROW,COL MAX. CHANGE LAYER,ROW,COL
 ------------------------------------------------------------------------------------------------------------------------------------
   0.3551E-01 (  2,  1, 84)  0.1451E-02 (  2,  1, 75)  0.6161E-04 (  3,  1, 75)  0.3275E-05 (  3,  1, 74)  0.1987E-06 (  4,  1, 74)
   0.1003E-07 (  5,  1, 74)


                                          ================================================
                                                         FROM TIME =   1790.0     TO    1800.0    

 
 SOLVING FOR HEAD 
 FLOW MODEL IS TRANSIENT
 FLOW MODEL CONTAINS CONSTANT-HEAD CELLS


 MAXIMUM STEPSIZE DURING WHICH ANY PARTICLE CANNOT MOVE MORE THAN ONE CELL
 =  5.225    (WHEN MIN. R.F.=1)  AT K=   5, I=   1, J=  49

 MAXIMUM STEPSIZE WHICH MEETS STABILITY CRITERION OF THE ADVECTION TERM
 (FOR PURE FINITE-DIFFERENCE OPTION, MIXELM=0) 
 =  3.574    (WHEN MIN. R.F.=1)  AT K=   2, I=   1, J=  44


 TOTAL NUMBER OF POINT SOURCES/SINKS PRESENT IN THE FLOW MODEL =    62

 MAXIMUM STEPSIZE WHICH MEETS STABILITY CRITERION OF THE SINK & SOURCE TERM
 =  198.7    (WHEN MIN. R.F.=1)  AT K=   2, I=   1, J= 120

 MAXIMUM STEPSIZE WHICH MEETS STABILITY CRITERION OF THE DISPERSION TERM
 =  20.29    (WHEN MIN. R.F.=1)  AT K=   1, I=   1, J=  31


     1 CALLS TO GCG PACKAGE FOR TRANSPORT TIME STEP   1 IN FLOW TIME STEP 180 STRESS PERIOD   1
     6 TOTAL ITERATIONS

 NO OUTPUT CONTROL FOR STRESS PERIOD    1   TIME STEP 180
 
 SOLVING FOR HEAD 
 FLOW MODEL IS TRANSIENT
 FLOW MODEL CONTAINS CONSTANT-HEAD CELLS


 MAXIMUM STEPSIZE DURING WHICH ANY PARTICLE CANNOT MOVE MORE THAN ONE CELL
 =  5.314    (WHEN MIN. R.F.=1)  AT K=   5, I=   1, J=  49

 MAXIMUM STEPSIZE WHICH MEETS STABILITY CRITERION OF THE ADVECTION TERM
 (FOR PURE FINITE-DIFFERENCE OPTION, MIXELM=0) 
 =  3.406    (WHEN MIN. R.F.=1)  AT K=   2, I=   1, J=  44


 TOTAL NUMBER OF POINT SOURCES/SINKS PRESENT IN THE FLOW MODEL =    62

 MAXIMUM STEPSIZE WHICH MEETS STABILITY CRITERION OF THE SINK & SOURCE TERM
 =  197.9    (WHEN MIN. R.F.=1)  AT K=   2, I=   1, J= 120

 MAXIMUM STEPSIZE WHICH MEETS STABILITY CRITERION OF THE DISPERSION TERM
 =  20.29    (WHEN MIN. R.F.=1)  AT K=   1, I=   1, J=  31
     1 CALLS TO GCG PACKAGE FOR TRANSPORT TIME STEP   2 IN FLOW TIME STEP 180 STRESS PERIOD   1
     6 TOTAL ITERATIONS
 
 SOLVING FOR HEAD 
 FLOW MODEL IS TRANSIENT
 FLOW MODEL CONTAINS CONSTANT-HEAD CELLS


 MAXIMUM STEPSIZE DURING WHICH ANY PARTICLE CANNOT MOVE MORE THAN ONE CELL
 =  5.426    (WHEN MIN. R.F.=1)  AT K=   5, I=   1, J=  49

 MAXIMUM STEPSIZE WHICH MEETS STABILITY CRITERION OF THE ADVECTION TERM
 (FOR PURE FINITE-DIFFERENCE OPTION, MIXELM=0) 
 =  3.399    (WHEN MIN. R.F.=1)  AT K=   2, I=   1, J=  44


 TOTAL NUMBER OF POINT SOURCES/SINKS PRESENT IN THE FLOW MODEL =    62

 MAXIMUM STEPSIZE WHICH MEETS STABILITY CRITERION OF THE SINK & SOURCE TERM
 =  203.5    (WHEN MIN. R.F.=1)  AT K=   2, I=   1, J= 120

 MAXIMUM STEPSIZE WHICH MEETS STABILITY CRITERION OF THE DISPERSION TERM
 =  20.29    (WHEN MIN. R.F.=1)  AT K=   1, I=   1, J=  31
     1 CALLS TO GCG PACKAGE FOR TRANSPORT TIME STEP   3 IN FLOW TIME STEP 180 STRESS PERIOD   1
     6 TOTAL ITERATIONS
 
 SOLVING FOR HEAD 
 FLOW MODEL IS TRANSIENT
 FLOW MODEL CONTAINS CONSTANT-HEAD CELLS


 MAXIMUM STEPSIZE DURING WHICH ANY PARTICLE CANNOT MOVE MORE THAN ONE CELL
 =  5.547    (WHEN MIN. R.F.=1)  AT K=   6, I=   1, J=  49

 MAXIMUM STEPSIZE WHICH MEETS STABILITY CRITERION OF THE ADVECTION TERM
 (FOR PURE FINITE-DIFFERENCE OPTION, MIXELM=0) 
 =  3.499    (WHEN MIN. R.F.=1)  AT K=   2, I=   1, J=  44


 TOTAL NUMBER OF POINT SOURCES/SINKS PRESENT IN THE FLOW MODEL =    62

 MAXIMUM STEPSIZE WHICH MEETS STABILITY CRITERION OF THE SINK & SOURCE TERM
 =  207.0    (WHEN MIN. R.F.=1)  AT K=   2, I=   1, J= 120

 MAXIMUM STEPSIZE WHICH MEETS STABILITY CRITERION OF THE DISPERSION TERM
 =  20.29    (WHEN MIN. R.F.=1)  AT K=   1, I=   1, J=  31
     1 CALLS TO GCG PACKAGE FOR TRANSPORT TIME STEP   4 IN FLOW TIME STEP 180 STRESS PERIOD   1
     5 TOTAL ITERATIONS
  MAXIMUM CONCENTRATION CHANGES FOR EACH ITERATION:
  MAX. CHANGE LAYER,ROW,COL MAX. CHANGE LAYER,ROW,COL MAX. CHANGE LAYER,ROW,COL MAX. CHANGE LAYER,ROW,COL MAX. CHANGE LAYER,ROW,COL
 ------------------------------------------------------------------------------------------------------------------------------------
   0.3057E-01 (  2,  1, 83)  0.8120E-03 (  2,  1, 83)  0.3511E-04 (  2,  1, 77)  0.1852E-05 (  3,  1, 47)  0.6561E-07 (  3,  1, 78)


                                          ================================================
                                                         FROM TIME =   1800.0     TO    1810.0    

 
 SOLVING FOR HEAD 
 FLOW MODEL IS TRANSIENT
 FLOW MODEL CONTAINS CONSTANT-HEAD CELLS


 MAXIMUM STEPSIZE DURING WHICH ANY PARTICLE CANNOT MOVE MORE THAN ONE CELL
 =  5.625    (WHEN MIN. R.F.=1)  AT K=   6, I=   1, J=  49

 MAXIMUM STEPSIZE WHICH MEETS STABILITY CRITERION OF THE ADVECTION TERM
 (FOR PURE FINITE-DIFFERENCE OPTION, MIXELM=0) 
 =  3.705    (WHEN MIN. R.F.=1)  AT K=   2, I=   1, J=  44


 TOTAL NUMBER OF POINT SOURCES/SINKS PRESENT IN THE FLOW MODEL =    62

 MAXIMUM STEPSIZE WHICH MEETS STABILITY CRITERION OF THE SINK & SOURCE TERM
 =  207.9    (WHEN MIN. R.F.=1)  AT K=   2, I=   1, J= 120

 MAXIMUM STEPSIZE WHICH MEETS STABILITY CRITERION OF THE DISPERSION TERM
 =  20.29    (WHEN MIN. R.F.=1)  AT K=   1, I=   1, J=  31


     1 CALLS TO GCG PACKAGE FOR TRANSPORT TIME STEP   1 IN FLOW TIME STEP 181 STRESS PERIOD   1
     6 TOTAL ITERATIONS

 NO OUTPUT CONTROL FOR STRESS PERIOD    1   TIME STEP 181
 
 SOLVING FOR HEAD 
 FLOW MODEL IS TRANSIENT
 FLOW MODEL CONTAINS CONSTANT-HEAD CELLS


 MAXIMUM STEPSIZE DURING WHICH ANY PARTICLE CANNOT MOVE MORE THAN ONE CELL
 =  5.742    (WHEN MIN. R.F.=1)  AT K=   6, I=   1, J=  49

 MAXIMUM STEPSIZE WHICH MEETS STABILITY CRITERION OF THE ADVECTION TERM
 (FOR PURE FINITE-DIFFERENCE OPTION, MIXELM=0) 
 =  3.756    (WHEN MIN. R.F.=1)  AT K=   2, I=   1, J=  45


 TOTAL NUMBER OF POINT SOURCES/SINKS PRESENT IN THE FLOW MODEL =    62

 MAXIMUM STEPSIZE WHICH MEETS STABILITY CRITERION OF THE SINK & SOURCE TERM
 =  197.1    (WHEN MIN. R.F.=1)  AT K=   2, I=   1, J= 120

 MAXIMUM STEPSIZE WHICH MEETS STABILITY CRITERION OF THE DISPERSION TERM
 =  20.29    (WHEN MIN. R.F.=1)  AT K=   1, I=   1, J=  31
     1 CALLS TO GCG PACKAGE FOR TRANSPORT TIME STEP   2 IN FLOW TIME STEP 181 STRESS PERIOD   1
     6 TOTAL ITERATIONS
 
 SOLVING FOR HEAD 
 FLOW MODEL IS TRANSIENT
 FLOW MODEL CONTAINS CONSTANT-HEAD CELLS


 MAXIMUM STEPSIZE DURING WHICH ANY PARTICLE CANNOT MOVE MORE THAN ONE CELL
 =  5.865    (WHEN MIN. R.F.=1)  AT K=   7, I=   1, J=  49

 MAXIMUM STEPSIZE WHICH MEETS STABILITY CRITERION OF THE ADVECTION TERM
 (FOR PURE FINITE-DIFFERENCE OPTION, MIXELM=0) 
 =  3.562    (WHEN MIN. R.F.=1)  AT K=   2, I=   1, J=  45


 TOTAL NUMBER OF POINT SOURCES/SINKS PRESENT IN THE FLOW MODEL =    62

 MAXIMUM STEPSIZE WHICH MEETS STABILITY CRITERION OF THE SINK & SOURCE TERM
 =  192.5    (WHEN MIN. R.F.=1)  AT K=   2, I=   1, J= 120

 MAXIMUM STEPSIZE WHICH MEETS STABILITY CRITERION OF THE DISPERSION TERM
 =  20.29    (WHEN MIN. R.F.=1)  AT K=   1, I=   1, J=  31
     1 CALLS TO GCG PACKAGE FOR TRANSPORT TIME STEP   3 IN FLOW TIME STEP 181 STRESS PERIOD   1
     6 TOTAL ITERATIONS
 
 SOLVING FOR HEAD 
 FLOW MODEL IS TRANSIENT
 FLOW MODEL CONTAINS CONSTANT-HEAD CELLS


 MAXIMUM STEPSIZE DURING WHICH ANY PARTICLE CANNOT MOVE MORE THAN ONE CELL
 =  5.979    (WHEN MIN. R.F.=1)  AT K=   7, I=   1, J=  49

 MAXIMUM STEPSIZE WHICH MEETS STABILITY CRITERION OF THE ADVECTION TERM
 (FOR PURE FINITE-DIFFERENCE OPTION, MIXELM=0) 
 =  3.483    (WHEN MIN. R.F.=1)  AT K=   2, I=   1, J=  81


 TOTAL NUMBER OF POINT SOURCES/SINKS PRESENT IN THE FLOW MODEL =    62

 MAXIMUM STEPSIZE WHICH MEETS STABILITY CRITERION OF THE SINK & SOURCE TERM
 =  193.0    (WHEN MIN. R.F.=1)  AT K=   2, I=   1, J= 120

 MAXIMUM STEPSIZE WHICH MEETS STABILITY CRITERION OF THE DISPERSION TERM
 =  20.29    (WHEN MIN. R.F.=1)  AT K=   1, I=   1, J=  31
     1 CALLS TO GCG PACKAGE FOR TRANSPORT TIME STEP   4 IN FLOW TIME STEP 181 STRESS PERIOD   1
     5 TOTAL ITERATIONS
  MAXIMUM CONCENTRATION CHANGES FOR EACH ITERATION:
  MAX. CHANGE LAYER,ROW,COL MAX. CHANGE LAYER,ROW,COL MAX. CHANGE LAYER,ROW,COL MAX. CHANGE LAYER,ROW,COL MAX. CHANGE LAYER,ROW,COL
 ------------------------------------------------------------------------------------------------------------------------------------
   0.2752E-01 (  2,  1, 82)  0.7597E-03 (  2,  1, 82)  0.2836E-04 (  2,  1, 83)  0.1030E-05 (  3,  1, 83)  0.3453E-07 (  3,  1, 77)


                                          ================================================
                                                         FROM TIME =   1810.0     TO    1820.0    

 
 SOLVING FOR HEAD 
 FLOW MODEL IS TRANSIENT
 FLOW MODEL CONTAINS CONSTANT-HEAD CELLS


 MAXIMUM STEPSIZE DURING WHICH ANY PARTICLE CANNOT MOVE MORE THAN ONE CELL
 =  6.062    (WHEN MIN. R.F.=1)  AT K=   7, I=   1, J=  49

 MAXIMUM STEPSIZE WHICH MEETS STABILITY CRITERION OF THE ADVECTION TERM
 (FOR PURE FINITE-DIFFERENCE OPTION, MIXELM=0) 
 =  3.554    (WHEN MIN. R.F.=1)  AT K=   2, I=   1, J=  81


 TOTAL NUMBER OF POINT SOURCES/SINKS PRESENT IN THE FLOW MODEL =    62

 MAXIMUM STEPSIZE WHICH MEETS STABILITY CRITERION OF THE SINK & SOURCE TERM
 =  205.9    (WHEN MIN. R.F.=1)  AT K=   2, I=   1, J= 120

 MAXIMUM STEPSIZE WHICH MEETS STABILITY CRITERION OF THE DISPERSION TERM
 =  20.29    (WHEN MIN. R.F.=1)  AT K=   1, I=   1, J=  31


     1 CALLS TO GCG PACKAGE FOR TRANSPORT TIME STEP   1 IN FLOW TIME STEP 182 STRESS PERIOD   1
     6 TOTAL ITERATIONS

 NO OUTPUT CONTROL FOR STRESS PERIOD    1   TIME STEP 182
 
 SOLVING FOR HEAD 
 FLOW MODEL IS TRANSIENT
 FLOW MODEL CONTAINS CONSTANT-HEAD CELLS


 MAXIMUM STEPSIZE DURING WHICH ANY PARTICLE CANNOT MOVE MORE THAN ONE CELL
 =  6.006    (WHEN MIN. R.F.=1)  AT K=   3, I=   1, J=  73

 MAXIMUM STEPSIZE WHICH MEETS STABILITY CRITERION OF THE ADVECTION TERM
 (FOR PURE FINITE-DIFFERENCE OPTION, MIXELM=0) 
 =  3.605    (WHEN MIN. R.F.=1)  AT K=   2, I=   1, J=  80


 TOTAL NUMBER OF POINT SOURCES/SINKS PRESENT IN THE FLOW MODEL =    62

 MAXIMUM STEPSIZE WHICH MEETS STABILITY CRITERION OF THE SINK & SOURCE TERM
 =  198.0    (WHEN MIN. R.F.=1)  AT K=   2, I=   1, J= 120

 MAXIMUM STEPSIZE WHICH MEETS STABILITY CRITERION OF THE DISPERSION TERM
 =  20.29    (WHEN MIN. R.F.=1)  AT K=   1, I=   1, J=  31
     1 CALLS TO GCG PACKAGE FOR TRANSPORT TIME STEP   2 IN FLOW TIME STEP 182 STRESS PERIOD   1
     6 TOTAL ITERATIONS
 
 SOLVING FOR HEAD 
 FLOW MODEL IS TRANSIENT
 FLOW MODEL CONTAINS CONSTANT-HEAD CELLS


 MAXIMUM STEPSIZE DURING WHICH ANY PARTICLE CANNOT MOVE MORE THAN ONE CELL
 =  5.664    (WHEN MIN. R.F.=1)  AT K=   4, I=   1, J=  73

 MAXIMUM STEPSIZE WHICH MEETS STABILITY CRITERION OF THE ADVECTION TERM
 (FOR PURE FINITE-DIFFERENCE OPTION, MIXELM=0) 
 =  3.284    (WHEN MIN. R.F.=1)  AT K=   2, I=   1, J=  80


 TOTAL NUMBER OF POINT SOURCES/SINKS PRESENT IN THE FLOW MODEL =    62

 MAXIMUM STEPSIZE WHICH MEETS STABILITY CRITERION OF THE SINK & SOURCE TERM
 =  195.1    (WHEN MIN. R.F.=1)  AT K=   2, I=   1, J= 120

 MAXIMUM STEPSIZE WHICH MEETS STABILITY CRITERION OF THE DISPERSION TERM
 =  20.29    (WHEN MIN. R.F.=1)  AT K=   1, I=   1, J=  31
     1 CALLS TO GCG PACKAGE FOR TRANSPORT TIME STEP   3 IN FLOW TIME STEP 182 STRESS PERIOD   1
     6 TOTAL ITERATIONS
 
 SOLVING FOR HEAD 
 FLOW MODEL IS TRANSIENT
 FLOW MODEL CONTAINS CONSTANT-HEAD CELLS


 MAXIMUM STEPSIZE DURING WHICH ANY PARTICLE CANNOT MOVE MORE THAN ONE CELL
 =  5.359    (WHEN MIN. R.F.=1)  AT K=   4, I=   1, J=  73

 MAXIMUM STEPSIZE WHICH MEETS STABILITY CRITERION OF THE ADVECTION TERM
 (FOR PURE FINITE-DIFFERENCE OPTION, MIXELM=0) 
 =  3.190    (WHEN MIN. R.F.=1)  AT K=   2, I=   1, J=  80


 TOTAL NUMBER OF POINT SOURCES/SINKS PRESENT IN THE FLOW MODEL =    62

 MAXIMUM STEPSIZE WHICH MEETS STABILITY CRITERION OF THE SINK & SOURCE TERM
 =  191.5    (WHEN MIN. R.F.=1)  AT K=   2, I=   1, J= 120

 MAXIMUM STEPSIZE WHICH MEETS STABILITY CRITERION OF THE DISPERSION TERM
 =  20.29    (WHEN MIN. R.F.=1)  AT K=   1, I=   1, J=  31
     1 CALLS TO GCG PACKAGE FOR TRANSPORT TIME STEP   4 IN FLOW TIME STEP 182 STRESS PERIOD   1
     5 TOTAL ITERATIONS
  MAXIMUM CONCENTRATION CHANGES FOR EACH ITERATION:
  MAX. CHANGE LAYER,ROW,COL MAX. CHANGE LAYER,ROW,COL MAX. CHANGE LAYER,ROW,COL MAX. CHANGE LAYER,ROW,COL MAX. CHANGE LAYER,ROW,COL
 ------------------------------------------------------------------------------------------------------------------------------------
   0.2992E-01 (  2,  1, 81)  0.8473E-03 (  2,  1, 81)  0.4255E-04 (  3,  1, 79)  0.1770E-05 (  4,  1, 79)  0.6450E-07 (  3,  1, 76)


                                          ================================================
                                                         FROM TIME =   1820.0     TO    1830.0    

 
 SOLVING FOR HEAD 
 FLOW MODEL IS TRANSIENT
 FLOW MODEL CONTAINS CONSTANT-HEAD CELLS


 MAXIMUM STEPSIZE DURING WHICH ANY PARTICLE CANNOT MOVE MORE THAN ONE CELL
 =  5.180    (WHEN MIN. R.F.=1)  AT K=   4, I=   1, J=  73

 MAXIMUM STEPSIZE WHICH MEETS STABILITY CRITERION OF THE ADVECTION TERM
 (FOR PURE FINITE-DIFFERENCE OPTION, MIXELM=0) 
 =  3.237    (WHEN MIN. R.F.=1)  AT K=   2, I=   1, J=  80


 TOTAL NUMBER OF POINT SOURCES/SINKS PRESENT IN THE FLOW MODEL =    62

 MAXIMUM STEPSIZE WHICH MEETS STABILITY CRITERION OF THE SINK & SOURCE TERM
 =  198.7    (WHEN MIN. R.F.=1)  AT K=   2, I=   1, J= 120

 MAXIMUM STEPSIZE WHICH MEETS STABILITY CRITERION OF THE DISPERSION TERM
 =  20.29    (WHEN MIN. R.F.=1)  AT K=   1, I=   1, J=  31


     1 CALLS TO GCG PACKAGE FOR TRANSPORT TIME STEP   1 IN FLOW TIME STEP 183 STRESS PERIOD   1
     6 TOTAL ITERATIONS

 NO OUTPUT CONTROL FOR STRESS PERIOD    1   TIME STEP 183
 
 SOLVING FOR HEAD 
 FLOW MODEL IS TRANSIENT
 FLOW MODEL CONTAINS CONSTANT-HEAD CELLS


 MAXIMUM STEPSIZE DURING WHICH ANY PARTICLE CANNOT MOVE MORE THAN ONE CELL
 =  5.027    (WHEN MIN. R.F.=1)  AT K=   4, I=   1, J=  73

 MAXIMUM STEPSIZE WHICH MEETS STABILITY CRITERION OF THE ADVECTION TERM
 (FOR PURE FINITE-DIFFERENCE OPTION, MIXELM=0) 
 =  3.479    (WHEN MIN. R.F.=1)  AT K=   2, I=   1, J=  80


 TOTAL NUMBER OF POINT SOURCES/SINKS PRESENT IN THE FLOW MODEL =    62

 MAXIMUM STEPSIZE WHICH MEETS STABILITY CRITERION OF THE SINK & SOURCE TERM
 =  198.0    (WHEN MIN. R.F.=1)  AT K=   2, I=   1, J= 120

 MAXIMUM STEPSIZE WHICH MEETS STABILITY CRITERION OF THE DISPERSION TERM
 =  20.29    (WHEN MIN. R.F.=1)  AT K=   1, I=   1, J=  31
     1 CALLS TO GCG PACKAGE FOR TRANSPORT TIME STEP   2 IN FLOW TIME STEP 183 STRESS PERIOD   1
     6 TOTAL ITERATIONS
 
 SOLVING FOR HEAD 
 FLOW MODEL IS TRANSIENT
 FLOW MODEL CONTAINS CONSTANT-HEAD CELLS


 MAXIMUM STEPSIZE DURING WHICH ANY PARTICLE CANNOT MOVE MORE THAN ONE CELL
 =  4.928    (WHEN MIN. R.F.=1)  AT K=   4, I=   1, J=  73

 MAXIMUM STEPSIZE WHICH MEETS STABILITY CRITERION OF THE ADVECTION TERM
 (FOR PURE FINITE-DIFFERENCE OPTION, MIXELM=0) 
 =  3.361    (WHEN MIN. R.F.=1)  AT K=   2, I=   1, J=  79


 TOTAL NUMBER OF POINT SOURCES/SINKS PRESENT IN THE FLOW MODEL =    62

 MAXIMUM STEPSIZE WHICH MEETS STABILITY CRITERION OF THE SINK & SOURCE TERM
 =  202.4    (WHEN MIN. R.F.=1)  AT K=   2, I=   1, J= 120

 MAXIMUM STEPSIZE WHICH MEETS STABILITY CRITERION OF THE DISPERSION TERM
 =  20.29    (WHEN MIN. R.F.=1)  AT K=   1, I=   1, J=  31
     1 CALLS TO GCG PACKAGE FOR TRANSPORT TIME STEP   3 IN FLOW TIME STEP 183 STRESS PERIOD   1
     6 TOTAL ITERATIONS
 
 SOLVING FOR HEAD 
 FLOW MODEL IS TRANSIENT
 FLOW MODEL CONTAINS CONSTANT-HEAD CELLS


 MAXIMUM STEPSIZE DURING WHICH ANY PARTICLE CANNOT MOVE MORE THAN ONE CELL
 =  4.886    (WHEN MIN. R.F.=1)  AT K=   4, I=   1, J=  73

 MAXIMUM STEPSIZE WHICH MEETS STABILITY CRITERION OF THE ADVECTION TERM
 (FOR PURE FINITE-DIFFERENCE OPTION, MIXELM=0) 
 =  3.197    (WHEN MIN. R.F.=1)  AT K=   2, I=   1, J=  79


 TOTAL NUMBER OF POINT SOURCES/SINKS PRESENT IN THE FLOW MODEL =    62

 MAXIMUM STEPSIZE WHICH MEETS STABILITY CRITERION OF THE SINK & SOURCE TERM
 =  204.6    (WHEN MIN. R.F.=1)  AT K=   2, I=   1, J= 120

 MAXIMUM STEPSIZE WHICH MEETS STABILITY CRITERION OF THE DISPERSION TERM
 =  20.29    (WHEN MIN. R.F.=1)  AT K=   1, I=   1, J=  31
     1 CALLS TO GCG PACKAGE FOR TRANSPORT TIME STEP   4 IN FLOW TIME STEP 183 STRESS PERIOD   1
     6 TOTAL ITERATIONS
 
 SOLVING FOR HEAD 
 FLOW MODEL IS TRANSIENT
 FLOW MODEL CONTAINS CONSTANT-HEAD CELLS


 MAXIMUM STEPSIZE DURING WHICH ANY PARTICLE CANNOT MOVE MORE THAN ONE CELL
 =  4.897    (WHEN MIN. R.F.=1)  AT K=   4, I=   1, J=  73

 MAXIMUM STEPSIZE WHICH MEETS STABILITY CRITERION OF THE ADVECTION TERM
 (FOR PURE FINITE-DIFFERENCE OPTION, MIXELM=0) 
 =  3.178    (WHEN MIN. R.F.=1)  AT K=   2, I=   1, J=  79


 TOTAL NUMBER OF POINT SOURCES/SINKS PRESENT IN THE FLOW MODEL =    62

 MAXIMUM STEPSIZE WHICH MEETS STABILITY CRITERION OF THE SINK & SOURCE TERM
 =  181.1    (WHEN MIN. R.F.=1)  AT K=   2, I=   1, J= 120

 MAXIMUM STEPSIZE WHICH MEETS STABILITY CRITERION OF THE DISPERSION TERM
 =  20.29    (WHEN MIN. R.F.=1)  AT K=   1, I=   1, J=  31
     1 CALLS TO GCG PACKAGE FOR TRANSPORT TIME STEP   5 IN FLOW TIME STEP 183 STRESS PERIOD   1
     3 TOTAL ITERATIONS
  MAXIMUM CONCENTRATION CHANGES FOR EACH ITERATION:
  MAX. CHANGE LAYER,ROW,COL MAX. CHANGE LAYER,ROW,COL MAX. CHANGE LAYER,ROW,COL MAX. CHANGE LAYER,ROW,COL MAX. CHANGE LAYER,ROW,COL
 ------------------------------------------------------------------------------------------------------------------------------------
   0.6877E-03 (  2,  1, 80)  0.5837E-06 (  2,  1, 80)  0.6916E-09 (  3,  1, 78)


                                          ================================================
                                                         FROM TIME =   1830.0     TO    1840.0    

 
 SOLVING FOR HEAD 
 FLOW MODEL IS TRANSIENT
 FLOW MODEL CONTAINS CONSTANT-HEAD CELLS


 MAXIMUM STEPSIZE DURING WHICH ANY PARTICLE CANNOT MOVE MORE THAN ONE CELL
 =  4.898    (WHEN MIN. R.F.=1)  AT K=   4, I=   1, J=  73

 MAXIMUM STEPSIZE WHICH MEETS STABILITY CRITERION OF THE ADVECTION TERM
 (FOR PURE FINITE-DIFFERENCE OPTION, MIXELM=0) 
 =  3.180    (WHEN MIN. R.F.=1)  AT K=   2, I=   1, J=  79


 TOTAL NUMBER OF POINT SOURCES/SINKS PRESENT IN THE FLOW MODEL =    62

 MAXIMUM STEPSIZE WHICH MEETS STABILITY CRITERION OF THE SINK & SOURCE TERM
 =  231.3    (WHEN MIN. R.F.=1)  AT K=   2, I=   1, J= 120

 MAXIMUM STEPSIZE WHICH MEETS STABILITY CRITERION OF THE DISPERSION TERM
 =  20.29    (WHEN MIN. R.F.=1)  AT K=   1, I=   1, J=  31


     1 CALLS TO GCG PACKAGE FOR TRANSPORT TIME STEP   1 IN FLOW TIME STEP 184 STRESS PERIOD   1
     6 TOTAL ITERATIONS

 NO OUTPUT CONTROL FOR STRESS PERIOD    1   TIME STEP 184
 
 SOLVING FOR HEAD 
 FLOW MODEL IS TRANSIENT
 FLOW MODEL CONTAINS CONSTANT-HEAD CELLS


 MAXIMUM STEPSIZE DURING WHICH ANY PARTICLE CANNOT MOVE MORE THAN ONE CELL
 =  4.961    (WHEN MIN. R.F.=1)  AT K=   4, I=   1, J=  73

 MAXIMUM STEPSIZE WHICH MEETS STABILITY CRITERION OF THE ADVECTION TERM
 (FOR PURE FINITE-DIFFERENCE OPTION, MIXELM=0) 
 =  3.286    (WHEN MIN. R.F.=1)  AT K=   2, I=   1, J=  79


 TOTAL NUMBER OF POINT SOURCES/SINKS PRESENT IN THE FLOW MODEL =    62

 MAXIMUM STEPSIZE WHICH MEETS STABILITY CRITERION OF THE SINK & SOURCE TERM
 =  216.5    (WHEN MIN. R.F.=1)  AT K=   2, I=   1, J= 120

 MAXIMUM STEPSIZE WHICH MEETS STABILITY CRITERION OF THE DISPERSION TERM
 =  20.29    (WHEN MIN. R.F.=1)  AT K=   1, I=   1, J=  31
     1 CALLS TO GCG PACKAGE FOR TRANSPORT TIME STEP   2 IN FLOW TIME STEP 184 STRESS PERIOD   1
     6 TOTAL ITERATIONS
 
 SOLVING FOR HEAD 
 FLOW MODEL IS TRANSIENT
 FLOW MODEL CONTAINS CONSTANT-HEAD CELLS


 MAXIMUM STEPSIZE DURING WHICH ANY PARTICLE CANNOT MOVE MORE THAN ONE CELL
 =  5.060    (WHEN MIN. R.F.=1)  AT K=   4, I=   1, J=  73

 MAXIMUM STEPSIZE WHICH MEETS STABILITY CRITERION OF THE ADVECTION TERM
 (FOR PURE FINITE-DIFFERENCE OPTION, MIXELM=0) 
 =  3.607    (WHEN MIN. R.F.=1)  AT K=   2, I=   1, J=  79


 TOTAL NUMBER OF POINT SOURCES/SINKS PRESENT IN THE FLOW MODEL =    62

 MAXIMUM STEPSIZE WHICH MEETS STABILITY CRITERION OF THE SINK & SOURCE TERM
 =  215.9    (WHEN MIN. R.F.=1)  AT K=   2, I=   1, J= 120

 MAXIMUM STEPSIZE WHICH MEETS STABILITY CRITERION OF THE DISPERSION TERM
 =  20.29    (WHEN MIN. R.F.=1)  AT K=   1, I=   1, J=  31
     1 CALLS TO GCG PACKAGE FOR TRANSPORT TIME STEP   3 IN FLOW TIME STEP 184 STRESS PERIOD   1
     6 TOTAL ITERATIONS
 
 SOLVING FOR HEAD 
 FLOW MODEL IS TRANSIENT
 FLOW MODEL CONTAINS CONSTANT-HEAD CELLS


 MAXIMUM STEPSIZE DURING WHICH ANY PARTICLE CANNOT MOVE MORE THAN ONE CELL
 =  5.132    (WHEN MIN. R.F.=1)  AT K=   5, I=   1, J=  73

 MAXIMUM STEPSIZE WHICH MEETS STABILITY CRITERION OF THE ADVECTION TERM
 (FOR PURE FINITE-DIFFERENCE OPTION, MIXELM=0) 
 =  3.422    (WHEN MIN. R.F.=1)  AT K=   2, I=   1, J=  78


 TOTAL NUMBER OF POINT SOURCES/SINKS PRESENT IN THE FLOW MODEL =    62

 MAXIMUM STEPSIZE WHICH MEETS STABILITY CRITERION OF THE SINK & SOURCE TERM
 =  223.1    (WHEN MIN. R.F.=1)  AT K=   2, I=   1, J= 120

 MAXIMUM STEPSIZE WHICH MEETS STABILITY CRITERION OF THE DISPERSION TERM
 =  20.29    (WHEN MIN. R.F.=1)  AT K=   1, I=   1, J=  31
     1 CALLS TO GCG PACKAGE FOR TRANSPORT TIME STEP   4 IN FLOW TIME STEP 184 STRESS PERIOD   1
     6 TOTAL ITERATIONS
 
 SOLVING FOR HEAD 
 FLOW MODEL IS TRANSIENT
 FLOW MODEL CONTAINS CONSTANT-HEAD CELLS


 MAXIMUM STEPSIZE DURING WHICH ANY PARTICLE CANNOT MOVE MORE THAN ONE CELL
 =  5.244    (WHEN MIN. R.F.=1)  AT K=   5, I=   1, J=  73

 MAXIMUM STEPSIZE WHICH MEETS STABILITY CRITERION OF THE ADVECTION TERM
 (FOR PURE FINITE-DIFFERENCE OPTION, MIXELM=0) 
 =  3.285    (WHEN MIN. R.F.=1)  AT K=   2, I=   1, J=  78


 TOTAL NUMBER OF POINT SOURCES/SINKS PRESENT IN THE FLOW MODEL =    62

 MAXIMUM STEPSIZE WHICH MEETS STABILITY CRITERION OF THE SINK & SOURCE TERM
 =  194.1    (WHEN MIN. R.F.=1)  AT K=   2, I=   1, J= 120

 MAXIMUM STEPSIZE WHICH MEETS STABILITY CRITERION OF THE DISPERSION TERM
 =  20.29    (WHEN MIN. R.F.=1)  AT K=   1, I=   1, J=  31
     1 CALLS TO GCG PACKAGE FOR TRANSPORT TIME STEP   5 IN FLOW TIME STEP 184 STRESS PERIOD   1
     3 TOTAL ITERATIONS
  MAXIMUM CONCENTRATION CHANGES FOR EACH ITERATION:
  MAX. CHANGE LAYER,ROW,COL MAX. CHANGE LAYER,ROW,COL MAX. CHANGE LAYER,ROW,COL MAX. CHANGE LAYER,ROW,COL MAX. CHANGE LAYER,ROW,COL
 ------------------------------------------------------------------------------------------------------------------------------------
   0.8219E-03 (  2,  1, 39)  0.9377E-06 (  2,  1, 78)  0.1088E-08 (  2,  1, 75)


                                          ================================================
                                                         FROM TIME =   1840.0     TO    1850.0    

 
 SOLVING FOR HEAD 
 FLOW MODEL IS TRANSIENT
 FLOW MODEL CONTAINS CONSTANT-HEAD CELLS


 MAXIMUM STEPSIZE DURING WHICH ANY PARTICLE CANNOT MOVE MORE THAN ONE CELL
 =  5.247    (WHEN MIN. R.F.=1)  AT K=   5, I=   1, J=  73

 MAXIMUM STEPSIZE WHICH MEETS STABILITY CRITERION OF THE ADVECTION TERM
 (FOR PURE FINITE-DIFFERENCE OPTION, MIXELM=0) 
 =  3.283    (WHEN MIN. R.F.=1)  AT K=   2, I=   1, J=  78


 TOTAL NUMBER OF POINT SOURCES/SINKS PRESENT IN THE FLOW MODEL =    62

 MAXIMUM STEPSIZE WHICH MEETS STABILITY CRITERION OF THE SINK & SOURCE TERM
 =  250.9    (WHEN MIN. R.F.=1)  AT K=   2, I=   1, J= 120

 MAXIMUM STEPSIZE WHICH MEETS STABILITY CRITERION OF THE DISPERSION TERM
 =  20.29    (WHEN MIN. R.F.=1)  AT K=   1, I=   1, J=  31


     1 CALLS TO GCG PACKAGE FOR TRANSPORT TIME STEP   1 IN FLOW TIME STEP 185 STRESS PERIOD   1
     6 TOTAL ITERATIONS

 NO OUTPUT CONTROL FOR STRESS PERIOD    1   TIME STEP 185
 
 SOLVING FOR HEAD 
 FLOW MODEL IS TRANSIENT
 FLOW MODEL CONTAINS CONSTANT-HEAD CELLS


 MAXIMUM STEPSIZE DURING WHICH ANY PARTICLE CANNOT MOVE MORE THAN ONE CELL
 =  5.383    (WHEN MIN. R.F.=1)  AT K=   6, I=   1, J=  73

 MAXIMUM STEPSIZE WHICH MEETS STABILITY CRITERION OF THE ADVECTION TERM
 (FOR PURE FINITE-DIFFERENCE OPTION, MIXELM=0) 
 =  3.289    (WHEN MIN. R.F.=1)  AT K=   2, I=   1, J=  78


 TOTAL NUMBER OF POINT SOURCES/SINKS PRESENT IN THE FLOW MODEL =    62

 MAXIMUM STEPSIZE WHICH MEETS STABILITY CRITERION OF THE SINK & SOURCE TERM
 =  238.9    (WHEN MIN. R.F.=1)  AT K=   2, I=   1, J= 120

 MAXIMUM STEPSIZE WHICH MEETS STABILITY CRITERION OF THE DISPERSION TERM
 =  20.29    (WHEN MIN. R.F.=1)  AT K=   1, I=   1, J=  31
     1 CALLS TO GCG PACKAGE FOR TRANSPORT TIME STEP   2 IN FLOW TIME STEP 185 STRESS PERIOD   1
     6 TOTAL ITERATIONS
 
 SOLVING FOR HEAD 
 FLOW MODEL IS TRANSIENT
 FLOW MODEL CONTAINS CONSTANT-HEAD CELLS


 MAXIMUM STEPSIZE DURING WHICH ANY PARTICLE CANNOT MOVE MORE THAN ONE CELL
 =  5.478    (WHEN MIN. R.F.=1)  AT K=   6, I=   1, J=  73

 MAXIMUM STEPSIZE WHICH MEETS STABILITY CRITERION OF THE ADVECTION TERM
 (FOR PURE FINITE-DIFFERENCE OPTION, MIXELM=0) 
 =  3.409    (WHEN MIN. R.F.=1)  AT K=   2, I=   1, J=  41


 TOTAL NUMBER OF POINT SOURCES/SINKS PRESENT IN THE FLOW MODEL =    62

 MAXIMUM STEPSIZE WHICH MEETS STABILITY CRITERION OF THE SINK & SOURCE TERM
 =  234.8    (WHEN MIN. R.F.=1)  AT K=   2, I=   1, J= 120

 MAXIMUM STEPSIZE WHICH MEETS STABILITY CRITERION OF THE DISPERSION TERM
 =  20.29    (WHEN MIN. R.F.=1)  AT K=   1, I=   1, J=  31
     1 CALLS TO GCG PACKAGE FOR TRANSPORT TIME STEP   3 IN FLOW TIME STEP 185 STRESS PERIOD   1
     6 TOTAL ITERATIONS
 
 SOLVING FOR HEAD 
 FLOW MODEL IS TRANSIENT
 FLOW MODEL CONTAINS CONSTANT-HEAD CELLS


 MAXIMUM STEPSIZE DURING WHICH ANY PARTICLE CANNOT MOVE MORE THAN ONE CELL
 =  5.601    (WHEN MIN. R.F.=1)  AT K=   6, I=   1, J=  73

 MAXIMUM STEPSIZE WHICH MEETS STABILITY CRITERION OF THE ADVECTION TERM
 (FOR PURE FINITE-DIFFERENCE OPTION, MIXELM=0) 
 =  3.338    (WHEN MIN. R.F.=1)  AT K=   2, I=   1, J=  41


 TOTAL NUMBER OF POINT SOURCES/SINKS PRESENT IN THE FLOW MODEL =    62

 MAXIMUM STEPSIZE WHICH MEETS STABILITY CRITERION OF THE SINK & SOURCE TERM
 =  232.7    (WHEN MIN. R.F.=1)  AT K=   2, I=   1, J= 120

 MAXIMUM STEPSIZE WHICH MEETS STABILITY CRITERION OF THE DISPERSION TERM
 =  20.29    (WHEN MIN. R.F.=1)  AT K=   1, I=   1, J=  31
     1 CALLS TO GCG PACKAGE FOR TRANSPORT TIME STEP   4 IN FLOW TIME STEP 185 STRESS PERIOD   1
     6 TOTAL ITERATIONS
 
 SOLVING FOR HEAD 
 FLOW MODEL IS TRANSIENT
 FLOW MODEL CONTAINS CONSTANT-HEAD CELLS


 MAXIMUM STEPSIZE DURING WHICH ANY PARTICLE CANNOT MOVE MORE THAN ONE CELL
 =  5.721    (WHEN MIN. R.F.=1)  AT K=   7, I=   1, J=  73

 MAXIMUM STEPSIZE WHICH MEETS STABILITY CRITERION OF THE ADVECTION TERM
 (FOR PURE FINITE-DIFFERENCE OPTION, MIXELM=0) 
 =  3.388    (WHEN MIN. R.F.=1)  AT K=   2, I=   1, J=  41


 TOTAL NUMBER OF POINT SOURCES/SINKS PRESENT IN THE FLOW MODEL =    62

 MAXIMUM STEPSIZE WHICH MEETS STABILITY CRITERION OF THE SINK & SOURCE TERM
 =  202.9    (WHEN MIN. R.F.=1)  AT K=   2, I=   1, J= 120

 MAXIMUM STEPSIZE WHICH MEETS STABILITY CRITERION OF THE DISPERSION TERM
 =  20.29    (WHEN MIN. R.F.=1)  AT K=   1, I=   1, J=  31
     1 CALLS TO GCG PACKAGE FOR TRANSPORT TIME STEP   5 IN FLOW TIME STEP 185 STRESS PERIOD   1
     3 TOTAL ITERATIONS
  MAXIMUM CONCENTRATION CHANGES FOR EACH ITERATION:
  MAX. CHANGE LAYER,ROW,COL MAX. CHANGE LAYER,ROW,COL MAX. CHANGE LAYER,ROW,COL MAX. CHANGE LAYER,ROW,COL MAX. CHANGE LAYER,ROW,COL
 ------------------------------------------------------------------------------------------------------------------------------------
   0.6463E-03 (  2,  1, 79)  0.6557E-06 (  2,  1, 77)  0.6439E-09 (  3,  1, 77)


                                          ================================================
                                                         FROM TIME =   1850.0     TO    1860.0    

 
 SOLVING FOR HEAD 
 FLOW MODEL IS TRANSIENT
 FLOW MODEL CONTAINS CONSTANT-HEAD CELLS


 MAXIMUM STEPSIZE DURING WHICH ANY PARTICLE CANNOT MOVE MORE THAN ONE CELL
 =  5.723    (WHEN MIN. R.F.=1)  AT K=   7, I=   1, J=  73

 MAXIMUM STEPSIZE WHICH MEETS STABILITY CRITERION OF THE ADVECTION TERM
 (FOR PURE FINITE-DIFFERENCE OPTION, MIXELM=0) 
 =  3.391    (WHEN MIN. R.F.=1)  AT K=   2, I=   1, J=  41


 TOTAL NUMBER OF POINT SOURCES/SINKS PRESENT IN THE FLOW MODEL =    62

 MAXIMUM STEPSIZE WHICH MEETS STABILITY CRITERION OF THE SINK & SOURCE TERM
 =  263.4    (WHEN MIN. R.F.=1)  AT K=   2, I=   1, J= 120

 MAXIMUM STEPSIZE WHICH MEETS STABILITY CRITERION OF THE DISPERSION TERM
 =  20.29    (WHEN MIN. R.F.=1)  AT K=   1, I=   1, J=  31


     1 CALLS TO GCG PACKAGE FOR TRANSPORT TIME STEP   1 IN FLOW TIME STEP 186 STRESS PERIOD   1
     6 TOTAL ITERATIONS

 NO OUTPUT CONTROL FOR STRESS PERIOD    1   TIME STEP 186
 
 SOLVING FOR HEAD 
 FLOW MODEL IS TRANSIENT
 FLOW MODEL CONTAINS CONSTANT-HEAD CELLS


 MAXIMUM STEPSIZE DURING WHICH ANY PARTICLE CANNOT MOVE MORE THAN ONE CELL
 =  5.838    (WHEN MIN. R.F.=1)  AT K=   7, I=   1, J=  73

 MAXIMUM STEPSIZE WHICH MEETS STABILITY CRITERION OF THE ADVECTION TERM
 (FOR PURE FINITE-DIFFERENCE OPTION, MIXELM=0) 
 =  3.386    (WHEN MIN. R.F.=1)  AT K=   2, I=   1, J=  77


 TOTAL NUMBER OF POINT SOURCES/SINKS PRESENT IN THE FLOW MODEL =    62

 MAXIMUM STEPSIZE WHICH MEETS STABILITY CRITERION OF THE SINK & SOURCE TERM
 =  247.5    (WHEN MIN. R.F.=1)  AT K=   2, I=   1, J= 120

 MAXIMUM STEPSIZE WHICH MEETS STABILITY CRITERION OF THE DISPERSION TERM
 =  20.29    (WHEN MIN. R.F.=1)  AT K=   1, I=   1, J=  31
     1 CALLS TO GCG PACKAGE FOR TRANSPORT TIME STEP   2 IN FLOW TIME STEP 186 STRESS PERIOD   1
     6 TOTAL ITERATIONS
 
 SOLVING FOR HEAD 
 FLOW MODEL IS TRANSIENT
 FLOW MODEL CONTAINS CONSTANT-HEAD CELLS


 MAXIMUM STEPSIZE DURING WHICH ANY PARTICLE CANNOT MOVE MORE THAN ONE CELL
 =  5.788    (WHEN MIN. R.F.=1)  AT K=   4, I=   1, J=  49

 MAXIMUM STEPSIZE WHICH MEETS STABILITY CRITERION OF THE ADVECTION TERM
 (FOR PURE FINITE-DIFFERENCE OPTION, MIXELM=0) 
 =  3.362    (WHEN MIN. R.F.=1)  AT K=   2, I=   1, J=  77


 TOTAL NUMBER OF POINT SOURCES/SINKS PRESENT IN THE FLOW MODEL =    62

 MAXIMUM STEPSIZE WHICH MEETS STABILITY CRITERION OF THE SINK & SOURCE TERM
 =  250.2    (WHEN MIN. R.F.=1)  AT K=   2, I=   1, J= 120

 MAXIMUM STEPSIZE WHICH MEETS STABILITY CRITERION OF THE DISPERSION TERM
 =  20.29    (WHEN MIN. R.F.=1)  AT K=   1, I=   1, J=  31
     1 CALLS TO GCG PACKAGE FOR TRANSPORT TIME STEP   3 IN FLOW TIME STEP 186 STRESS PERIOD   1
     6 TOTAL ITERATIONS
 
 SOLVING FOR HEAD 
 FLOW MODEL IS TRANSIENT
 FLOW MODEL CONTAINS CONSTANT-HEAD CELLS


 MAXIMUM STEPSIZE DURING WHICH ANY PARTICLE CANNOT MOVE MORE THAN ONE CELL
 =  5.546    (WHEN MIN. R.F.=1)  AT K=   4, I=   1, J=  49

 MAXIMUM STEPSIZE WHICH MEETS STABILITY CRITERION OF THE ADVECTION TERM
 (FOR PURE FINITE-DIFFERENCE OPTION, MIXELM=0) 
 =  3.317    (WHEN MIN. R.F.=1)  AT K=   2, I=   1, J=  42


 TOTAL NUMBER OF POINT SOURCES/SINKS PRESENT IN THE FLOW MODEL =    62

 MAXIMUM STEPSIZE WHICH MEETS STABILITY CRITERION OF THE SINK & SOURCE TERM
 =  260.3    (WHEN MIN. R.F.=1)  AT K=   2, I=   1, J= 120

 MAXIMUM STEPSIZE WHICH MEETS STABILITY CRITERION OF THE DISPERSION TERM
 =  20.29    (WHEN MIN. R.F.=1)  AT K=   1, I=   1, J=  31
     1 CALLS TO GCG PACKAGE FOR TRANSPORT TIME STEP   4 IN FLOW TIME STEP 186 STRESS PERIOD   1
     6 TOTAL ITERATIONS
  MAXIMUM CONCENTRATION CHANGES FOR EACH ITERATION:
  MAX. CHANGE LAYER,ROW,COL MAX. CHANGE LAYER,ROW,COL MAX. CHANGE LAYER,ROW,COL MAX. CHANGE LAYER,ROW,COL MAX. CHANGE LAYER,ROW,COL
 ------------------------------------------------------------------------------------------------------------------------------------
   0.3466E-01 (  2,  1, 78)  0.1146E-02 (  2,  1, 76)  0.5918E-04 (  3,  1, 76)  0.2679E-05 (  4,  1, 43)  0.1153E-06 (  4,  1, 83)
   0.6744E-08 (  4,  1, 46)


                                          ================================================
                                                         FROM TIME =   1860.0     TO    1870.0    

 
 SOLVING FOR HEAD 
 FLOW MODEL IS TRANSIENT
 FLOW MODEL CONTAINS CONSTANT-HEAD CELLS


 MAXIMUM STEPSIZE DURING WHICH ANY PARTICLE CANNOT MOVE MORE THAN ONE CELL
 =  5.370    (WHEN MIN. R.F.=1)  AT K=   4, I=   1, J=  49

 MAXIMUM STEPSIZE WHICH MEETS STABILITY CRITERION OF THE ADVECTION TERM
 (FOR PURE FINITE-DIFFERENCE OPTION, MIXELM=0) 
 =  3.328    (WHEN MIN. R.F.=1)  AT K=   2, I=   1, J=  42


 TOTAL NUMBER OF POINT SOURCES/SINKS PRESENT IN THE FLOW MODEL =    62

 MAXIMUM STEPSIZE WHICH MEETS STABILITY CRITERION OF THE SINK & SOURCE TERM
 =  270.7    (WHEN MIN. R.F.=1)  AT K=   2, I=   1, J= 120

 MAXIMUM STEPSIZE WHICH MEETS STABILITY CRITERION OF THE DISPERSION TERM
 =  20.29    (WHEN MIN. R.F.=1)  AT K=   1, I=   1, J=  31


     1 CALLS TO GCG PACKAGE FOR TRANSPORT TIME STEP   1 IN FLOW TIME STEP 187 STRESS PERIOD   1
     6 TOTAL ITERATIONS

 NO OUTPUT CONTROL FOR STRESS PERIOD    1   TIME STEP 187
 
 SOLVING FOR HEAD 
 FLOW MODEL IS TRANSIENT
 FLOW MODEL CONTAINS CONSTANT-HEAD CELLS


 MAXIMUM STEPSIZE DURING WHICH ANY PARTICLE CANNOT MOVE MORE THAN ONE CELL
 =  5.232    (WHEN MIN. R.F.=1)  AT K=   4, I=   1, J=  49

 MAXIMUM STEPSIZE WHICH MEETS STABILITY CRITERION OF THE ADVECTION TERM
 (FOR PURE FINITE-DIFFERENCE OPTION, MIXELM=0) 
 =  3.455    (WHEN MIN. R.F.=1)  AT K=   2, I=   1, J=  42


 TOTAL NUMBER OF POINT SOURCES/SINKS PRESENT IN THE FLOW MODEL =    62

 MAXIMUM STEPSIZE WHICH MEETS STABILITY CRITERION OF THE SINK & SOURCE TERM
 =  275.2    (WHEN MIN. R.F.=1)  AT K=   2, I=   1, J= 120

 MAXIMUM STEPSIZE WHICH MEETS STABILITY CRITERION OF THE DISPERSION TERM
 =  20.29    (WHEN MIN. R.F.=1)  AT K=   1, I=   1, J=  31
     1 CALLS TO GCG PACKAGE FOR TRANSPORT TIME STEP   2 IN FLOW TIME STEP 187 STRESS PERIOD   1
     6 TOTAL ITERATIONS
 
 SOLVING FOR HEAD 
 FLOW MODEL IS TRANSIENT
 FLOW MODEL CONTAINS CONSTANT-HEAD CELLS


 MAXIMUM STEPSIZE DURING WHICH ANY PARTICLE CANNOT MOVE MORE THAN ONE CELL
 =  5.142    (WHEN MIN. R.F.=1)  AT K=   4, I=   1, J=  49

 MAXIMUM STEPSIZE WHICH MEETS STABILITY CRITERION OF THE ADVECTION TERM
 (FOR PURE FINITE-DIFFERENCE OPTION, MIXELM=0) 
 =  3.619    (WHEN MIN. R.F.=1)  AT K=   2, I=   1, J=  76


 TOTAL NUMBER OF POINT SOURCES/SINKS PRESENT IN THE FLOW MODEL =    62

 MAXIMUM STEPSIZE WHICH MEETS STABILITY CRITERION OF THE SINK & SOURCE TERM
 =  278.4    (WHEN MIN. R.F.=1)  AT K=   2, I=   1, J= 120

 MAXIMUM STEPSIZE WHICH MEETS STABILITY CRITERION OF THE DISPERSION TERM
 =  20.29    (WHEN MIN. R.F.=1)  AT K=   1, I=   1, J=  31
     1 CALLS TO GCG PACKAGE FOR TRANSPORT TIME STEP   3 IN FLOW TIME STEP 187 STRESS PERIOD   1
     6 TOTAL ITERATIONS
 
 SOLVING FOR HEAD 
 FLOW MODEL IS TRANSIENT
 FLOW MODEL CONTAINS CONSTANT-HEAD CELLS


 MAXIMUM STEPSIZE DURING WHICH ANY PARTICLE CANNOT MOVE MORE THAN ONE CELL
 =  5.090    (WHEN MIN. R.F.=1)  AT K=   4, I=   1, J=  49

 MAXIMUM STEPSIZE WHICH MEETS STABILITY CRITERION OF THE ADVECTION TERM
 (FOR PURE FINITE-DIFFERENCE OPTION, MIXELM=0) 
 =  3.458    (WHEN MIN. R.F.=1)  AT K=   2, I=   1, J=  43


 TOTAL NUMBER OF POINT SOURCES/SINKS PRESENT IN THE FLOW MODEL =    62

 MAXIMUM STEPSIZE WHICH MEETS STABILITY CRITERION OF THE SINK & SOURCE TERM
 =  280.6    (WHEN MIN. R.F.=1)  AT K=   2, I=   1, J= 120

 MAXIMUM STEPSIZE WHICH MEETS STABILITY CRITERION OF THE DISPERSION TERM
 =  20.29    (WHEN MIN. R.F.=1)  AT K=   1, I=   1, J=  31
     1 CALLS TO GCG PACKAGE FOR TRANSPORT TIME STEP   4 IN FLOW TIME STEP 187 STRESS PERIOD   1
     6 TOTAL ITERATIONS
  MAXIMUM CONCENTRATION CHANGES FOR EACH ITERATION:
  MAX. CHANGE LAYER,ROW,COL MAX. CHANGE LAYER,ROW,COL MAX. CHANGE LAYER,ROW,COL MAX. CHANGE LAYER,ROW,COL MAX. CHANGE LAYER,ROW,COL
 ------------------------------------------------------------------------------------------------------------------------------------
   0.3245E-01 (  2,  1, 77)  0.1216E-02 (  2,  1, 77)  0.5621E-04 (  2,  1, 78)  0.3330E-05 (  3,  1, 46)  0.1526E-06 (  4,  1, 46)
   0.9331E-08 (  4,  1, 79)


                                          ================================================
                                                         FROM TIME =   1870.0     TO    1880.0    

 
 SOLVING FOR HEAD 
 FLOW MODEL IS TRANSIENT
 FLOW MODEL CONTAINS CONSTANT-HEAD CELLS


 MAXIMUM STEPSIZE DURING WHICH ANY PARTICLE CANNOT MOVE MORE THAN ONE CELL
 =  5.079    (WHEN MIN. R.F.=1)  AT K=   4, I=   1, J=  49

 MAXIMUM STEPSIZE WHICH MEETS STABILITY CRITERION OF THE ADVECTION TERM
 (FOR PURE FINITE-DIFFERENCE OPTION, MIXELM=0) 
 =  3.370    (WHEN MIN. R.F.=1)  AT K=   2, I=   1, J=  43


 TOTAL NUMBER OF POINT SOURCES/SINKS PRESENT IN THE FLOW MODEL =    62

 MAXIMUM STEPSIZE WHICH MEETS STABILITY CRITERION OF THE SINK & SOURCE TERM
 =  296.6    (WHEN MIN. R.F.=1)  AT K=   2, I=   1, J= 120

 MAXIMUM STEPSIZE WHICH MEETS STABILITY CRITERION OF THE DISPERSION TERM
 =  20.29    (WHEN MIN. R.F.=1)  AT K=   1, I=   1, J=  31


     1 CALLS TO GCG PACKAGE FOR TRANSPORT TIME STEP   1 IN FLOW TIME STEP 188 STRESS PERIOD   1
     6 TOTAL ITERATIONS

 NO OUTPUT CONTROL FOR STRESS PERIOD    1   TIME STEP 188
 
 SOLVING FOR HEAD 
 FLOW MODEL IS TRANSIENT
 FLOW MODEL CONTAINS CONSTANT-HEAD CELLS


 MAXIMUM STEPSIZE DURING WHICH ANY PARTICLE CANNOT MOVE MORE THAN ONE CELL
 =  5.100    (WHEN MIN. R.F.=1)  AT K=   4, I=   1, J=  49

 MAXIMUM STEPSIZE WHICH MEETS STABILITY CRITERION OF THE ADVECTION TERM
 (FOR PURE FINITE-DIFFERENCE OPTION, MIXELM=0) 
 =  3.401    (WHEN MIN. R.F.=1)  AT K=   2, I=   1, J=  43


 TOTAL NUMBER OF POINT SOURCES/SINKS PRESENT IN THE FLOW MODEL =    62

 MAXIMUM STEPSIZE WHICH MEETS STABILITY CRITERION OF THE SINK & SOURCE TERM
 =  305.6    (WHEN MIN. R.F.=1)  AT K=   2, I=   1, J= 120

 MAXIMUM STEPSIZE WHICH MEETS STABILITY CRITERION OF THE DISPERSION TERM
 =  20.29    (WHEN MIN. R.F.=1)  AT K=   1, I=   1, J=  31
     1 CALLS TO GCG PACKAGE FOR TRANSPORT TIME STEP   2 IN FLOW TIME STEP 188 STRESS PERIOD   1
     6 TOTAL ITERATIONS
 
 SOLVING FOR HEAD 
 FLOW MODEL IS TRANSIENT
 FLOW MODEL CONTAINS CONSTANT-HEAD CELLS


 MAXIMUM STEPSIZE DURING WHICH ANY PARTICLE CANNOT MOVE MORE THAN ONE CELL
 =  5.144    (WHEN MIN. R.F.=1)  AT K=   4, I=   1, J=  49

 MAXIMUM STEPSIZE WHICH MEETS STABILITY CRITERION OF THE ADVECTION TERM
 (FOR PURE FINITE-DIFFERENCE OPTION, MIXELM=0) 
 =  3.555    (WHEN MIN. R.F.=1)  AT K=   2, I=   1, J=  43


 TOTAL NUMBER OF POINT SOURCES/SINKS PRESENT IN THE FLOW MODEL =    62

 MAXIMUM STEPSIZE WHICH MEETS STABILITY CRITERION OF THE SINK & SOURCE TERM
 =  316.3    (WHEN MIN. R.F.=1)  AT K=   2, I=   1, J= 120

 MAXIMUM STEPSIZE WHICH MEETS STABILITY CRITERION OF THE DISPERSION TERM
 =  20.29    (WHEN MIN. R.F.=1)  AT K=   1, I=   1, J=  31
     1 CALLS TO GCG PACKAGE FOR TRANSPORT TIME STEP   3 IN FLOW TIME STEP 188 STRESS PERIOD   1
     6 TOTAL ITERATIONS
 
 SOLVING FOR HEAD 
 FLOW MODEL IS TRANSIENT
 FLOW MODEL CONTAINS CONSTANT-HEAD CELLS


 MAXIMUM STEPSIZE DURING WHICH ANY PARTICLE CANNOT MOVE MORE THAN ONE CELL
 =  5.217    (WHEN MIN. R.F.=1)  AT K=   4, I=   1, J=  49

 MAXIMUM STEPSIZE WHICH MEETS STABILITY CRITERION OF THE ADVECTION TERM
 (FOR PURE FINITE-DIFFERENCE OPTION, MIXELM=0) 
 =  3.756    (WHEN MIN. R.F.=1)  AT K=   2, I=   1, J=  44


 TOTAL NUMBER OF POINT SOURCES/SINKS PRESENT IN THE FLOW MODEL =    62

 MAXIMUM STEPSIZE WHICH MEETS STABILITY CRITERION OF THE SINK & SOURCE TERM
 =  313.0    (WHEN MIN. R.F.=1)  AT K=   2, I=   1, J= 120

 MAXIMUM STEPSIZE WHICH MEETS STABILITY CRITERION OF THE DISPERSION TERM
 =  20.29    (WHEN MIN. R.F.=1)  AT K=   1, I=   1, J=  31
     1 CALLS TO GCG PACKAGE FOR TRANSPORT TIME STEP   4 IN FLOW TIME STEP 188 STRESS PERIOD   1
     6 TOTAL ITERATIONS
  MAXIMUM CONCENTRATION CHANGES FOR EACH ITERATION:
  MAX. CHANGE LAYER,ROW,COL MAX. CHANGE LAYER,ROW,COL MAX. CHANGE LAYER,ROW,COL MAX. CHANGE LAYER,ROW,COL MAX. CHANGE LAYER,ROW,COL
 ------------------------------------------------------------------------------------------------------------------------------------
   0.3096E-01 (  2,  1, 84)  0.1263E-02 (  2,  1, 75)  0.4324E-04 (  2,  1, 75)  0.2385E-05 (  3,  1, 74)  0.1292E-06 (  4,  1, 74)
   0.6016E-08 (  5,  1, 74)


                                          ================================================
                                                         FROM TIME =   1880.0     TO    1890.0    

 
 SOLVING FOR HEAD 
 FLOW MODEL IS TRANSIENT
 FLOW MODEL CONTAINS CONSTANT-HEAD CELLS


 MAXIMUM STEPSIZE DURING WHICH ANY PARTICLE CANNOT MOVE MORE THAN ONE CELL
 =  5.275    (WHEN MIN. R.F.=1)  AT K=   5, I=   1, J=  49

 MAXIMUM STEPSIZE WHICH MEETS STABILITY CRITERION OF THE ADVECTION TERM
 (FOR PURE FINITE-DIFFERENCE OPTION, MIXELM=0) 
 =  3.544    (WHEN MIN. R.F.=1)  AT K=   2, I=   1, J=  44


 TOTAL NUMBER OF POINT SOURCES/SINKS PRESENT IN THE FLOW MODEL =    62

 MAXIMUM STEPSIZE WHICH MEETS STABILITY CRITERION OF THE SINK & SOURCE TERM
 =  319.3    (WHEN MIN. R.F.=1)  AT K=   2, I=   1, J= 120

 MAXIMUM STEPSIZE WHICH MEETS STABILITY CRITERION OF THE DISPERSION TERM
 =  20.29    (WHEN MIN. R.F.=1)  AT K=   1, I=   1, J=  31


     1 CALLS TO GCG PACKAGE FOR TRANSPORT TIME STEP   1 IN FLOW TIME STEP 189 STRESS PERIOD   1
     6 TOTAL ITERATIONS

 NO OUTPUT CONTROL FOR STRESS PERIOD    1   TIME STEP 189
 
 SOLVING FOR HEAD 
 FLOW MODEL IS TRANSIENT
 FLOW MODEL CONTAINS CONSTANT-HEAD CELLS


 MAXIMUM STEPSIZE DURING WHICH ANY PARTICLE CANNOT MOVE MORE THAN ONE CELL
 =  5.356    (WHEN MIN. R.F.=1)  AT K=   5, I=   1, J=  49

 MAXIMUM STEPSIZE WHICH MEETS STABILITY CRITERION OF THE ADVECTION TERM
 (FOR PURE FINITE-DIFFERENCE OPTION, MIXELM=0) 
 =  3.445    (WHEN MIN. R.F.=1)  AT K=   2, I=   1, J=  44


 TOTAL NUMBER OF POINT SOURCES/SINKS PRESENT IN THE FLOW MODEL =    62

 MAXIMUM STEPSIZE WHICH MEETS STABILITY CRITERION OF THE SINK & SOURCE TERM
 =  318.3    (WHEN MIN. R.F.=1)  AT K=   2, I=   1, J= 120

 MAXIMUM STEPSIZE WHICH MEETS STABILITY CRITERION OF THE DISPERSION TERM
 =  20.29    (WHEN MIN. R.F.=1)  AT K=   1, I=   1, J=  31
     1 CALLS TO GCG PACKAGE FOR TRANSPORT TIME STEP   2 IN FLOW TIME STEP 189 STRESS PERIOD   1
     6 TOTAL ITERATIONS
 
 SOLVING FOR HEAD 
 FLOW MODEL IS TRANSIENT
 FLOW MODEL CONTAINS CONSTANT-HEAD CELLS


 MAXIMUM STEPSIZE DURING WHICH ANY PARTICLE CANNOT MOVE MORE THAN ONE CELL
 =  5.455    (WHEN MIN. R.F.=1)  AT K=   5, I=   1, J=  49

 MAXIMUM STEPSIZE WHICH MEETS STABILITY CRITERION OF THE ADVECTION TERM
 (FOR PURE FINITE-DIFFERENCE OPTION, MIXELM=0) 
 =  3.491    (WHEN MIN. R.F.=1)  AT K=   2, I=   1, J=  44


 TOTAL NUMBER OF POINT SOURCES/SINKS PRESENT IN THE FLOW MODEL =    62

 MAXIMUM STEPSIZE WHICH MEETS STABILITY CRITERION OF THE SINK & SOURCE TERM
 =  330.4    (WHEN MIN. R.F.=1)  AT K=   2, I=   1, J= 120

 MAXIMUM STEPSIZE WHICH MEETS STABILITY CRITERION OF THE DISPERSION TERM
 =  20.29    (WHEN MIN. R.F.=1)  AT K=   1, I=   1, J=  31
     1 CALLS TO GCG PACKAGE FOR TRANSPORT TIME STEP   3 IN FLOW TIME STEP 189 STRESS PERIOD   1
     6 TOTAL ITERATIONS
 
 SOLVING FOR HEAD 
 FLOW MODEL IS TRANSIENT
 FLOW MODEL CONTAINS CONSTANT-HEAD CELLS


 MAXIMUM STEPSIZE DURING WHICH ANY PARTICLE CANNOT MOVE MORE THAN ONE CELL
 =  5.570    (WHEN MIN. R.F.=1)  AT K=   5, I=   1, J=  49

 MAXIMUM STEPSIZE WHICH MEETS STABILITY CRITERION OF THE ADVECTION TERM
 (FOR PURE FINITE-DIFFERENCE OPTION, MIXELM=0) 
 =  3.656    (WHEN MIN. R.F.=1)  AT K=   2, I=   1, J=  44


 TOTAL NUMBER OF POINT SOURCES/SINKS PRESENT IN THE FLOW MODEL =    62

 MAXIMUM STEPSIZE WHICH MEETS STABILITY CRITERION OF THE SINK & SOURCE TERM
 =  322.7    (WHEN MIN. R.F.=1)  AT K=   2, I=   1, J= 120

 MAXIMUM STEPSIZE WHICH MEETS STABILITY CRITERION OF THE DISPERSION TERM
 =  20.29    (WHEN MIN. R.F.=1)  AT K=   1, I=   1, J=  31
     1 CALLS TO GCG PACKAGE FOR TRANSPORT TIME STEP   4 IN FLOW TIME STEP 189 STRESS PERIOD   1
     5 TOTAL ITERATIONS
  MAXIMUM CONCENTRATION CHANGES FOR EACH ITERATION:
  MAX. CHANGE LAYER,ROW,COL MAX. CHANGE LAYER,ROW,COL MAX. CHANGE LAYER,ROW,COL MAX. CHANGE LAYER,ROW,COL MAX. CHANGE LAYER,ROW,COL
 ------------------------------------------------------------------------------------------------------------------------------------
   0.2688E-01 (  2,  1, 83)  0.6677E-03 (  3,  1, 78)  0.2757E-04 (  3,  1, 45)  0.1229E-05 (  3,  1, 77)  0.4015E-07 (  3,  1, 78)


                                          ================================================
                                                         FROM TIME =   1890.0     TO    1900.0    

 
 SOLVING FOR HEAD 
 FLOW MODEL IS TRANSIENT
 FLOW MODEL CONTAINS CONSTANT-HEAD CELLS


 MAXIMUM STEPSIZE DURING WHICH ANY PARTICLE CANNOT MOVE MORE THAN ONE CELL
 =  5.643    (WHEN MIN. R.F.=1)  AT K=   6, I=   1, J=  49

 MAXIMUM STEPSIZE WHICH MEETS STABILITY CRITERION OF THE ADVECTION TERM
 (FOR PURE FINITE-DIFFERENCE OPTION, MIXELM=0) 
 =  3.897    (WHEN MIN. R.F.=1)  AT K=   2, I=   1, J=  44


 TOTAL NUMBER OF POINT SOURCES/SINKS PRESENT IN THE FLOW MODEL =    62

 MAXIMUM STEPSIZE WHICH MEETS STABILITY CRITERION OF THE SINK & SOURCE TERM
 =  327.8    (WHEN MIN. R.F.=1)  AT K=   2, I=   1, J= 120

 MAXIMUM STEPSIZE WHICH MEETS STABILITY CRITERION OF THE DISPERSION TERM
 =  20.29    (WHEN MIN. R.F.=1)  AT K=   1, I=   1, J=  31


     1 CALLS TO GCG PACKAGE FOR TRANSPORT TIME STEP   1 IN FLOW TIME STEP 190 STRESS PERIOD   1
     6 TOTAL ITERATIONS

 NO OUTPUT CONTROL FOR STRESS PERIOD    1   TIME STEP 190
 
 SOLVING FOR HEAD 
 FLOW MODEL IS TRANSIENT
 FLOW MODEL CONTAINS CONSTANT-HEAD CELLS


 MAXIMUM STEPSIZE DURING WHICH ANY PARTICLE CANNOT MOVE MORE THAN ONE CELL
 =  5.749    (WHEN MIN. R.F.=1)  AT K=   6, I=   1, J=  49

 MAXIMUM STEPSIZE WHICH MEETS STABILITY CRITERION OF THE ADVECTION TERM
 (FOR PURE FINITE-DIFFERENCE OPTION, MIXELM=0) 
 =  3.652    (WHEN MIN. R.F.=1)  AT K=   2, I=   1, J=  81


 TOTAL NUMBER OF POINT SOURCES/SINKS PRESENT IN THE FLOW MODEL =    62

 MAXIMUM STEPSIZE WHICH MEETS STABILITY CRITERION OF THE SINK & SOURCE TERM
 =  309.0    (WHEN MIN. R.F.=1)  AT K=   2, I=   1, J= 120

 MAXIMUM STEPSIZE WHICH MEETS STABILITY CRITERION OF THE DISPERSION TERM
 =  20.29    (WHEN MIN. R.F.=1)  AT K=   1, I=   1, J=  31
     1 CALLS TO GCG PACKAGE FOR TRANSPORT TIME STEP   2 IN FLOW TIME STEP 190 STRESS PERIOD   1
     6 TOTAL ITERATIONS
 
 SOLVING FOR HEAD 
 FLOW MODEL IS TRANSIENT
 FLOW MODEL CONTAINS CONSTANT-HEAD CELLS


 MAXIMUM STEPSIZE DURING WHICH ANY PARTICLE CANNOT MOVE MORE THAN ONE CELL
 =  5.881    (WHEN MIN. R.F.=1)  AT K=   6, I=   1, J=  49

 MAXIMUM STEPSIZE WHICH MEETS STABILITY CRITERION OF THE ADVECTION TERM
 (FOR PURE FINITE-DIFFERENCE OPTION, MIXELM=0) 
 =  3.534    (WHEN MIN. R.F.=1)  AT K=   2, I=   1, J=  81


 TOTAL NUMBER OF POINT SOURCES/SINKS PRESENT IN THE FLOW MODEL =    62

 MAXIMUM STEPSIZE WHICH MEETS STABILITY CRITERION OF THE SINK & SOURCE TERM
 =  316.6    (WHEN MIN. R.F.=1)  AT K=   2, I=   1, J= 120

 MAXIMUM STEPSIZE WHICH MEETS STABILITY CRITERION OF THE DISPERSION TERM
 =  20.29    (WHEN MIN. R.F.=1)  AT K=   1, I=   1, J=  31
     1 CALLS TO GCG PACKAGE FOR TRANSPORT TIME STEP   3 IN FLOW TIME STEP 190 STRESS PERIOD   1
     6 TOTAL ITERATIONS
 
 SOLVING FOR HEAD 
 FLOW MODEL IS TRANSIENT
 FLOW MODEL CONTAINS CONSTANT-HEAD CELLS


 MAXIMUM STEPSIZE DURING WHICH ANY PARTICLE CANNOT MOVE MORE THAN ONE CELL
 =  5.994    (WHEN MIN. R.F.=1)  AT K=   7, I=   1, J=  49

 MAXIMUM STEPSIZE WHICH MEETS STABILITY CRITERION OF THE ADVECTION TERM
 (FOR PURE FINITE-DIFFERENCE OPTION, MIXELM=0) 
 =  3.614    (WHEN MIN. R.F.=1)  AT K=   2, I=   1, J=  45


 TOTAL NUMBER OF POINT SOURCES/SINKS PRESENT IN THE FLOW MODEL =    62

 MAXIMUM STEPSIZE WHICH MEETS STABILITY CRITERION OF THE SINK & SOURCE TERM
 =  304.9    (WHEN MIN. R.F.=1)  AT K=   2, I=   1, J= 120

 MAXIMUM STEPSIZE WHICH MEETS STABILITY CRITERION OF THE DISPERSION TERM
 =  20.29    (WHEN MIN. R.F.=1)  AT K=   1, I=   1, J=  31
     1 CALLS TO GCG PACKAGE FOR TRANSPORT TIME STEP   4 IN FLOW TIME STEP 190 STRESS PERIOD   1
     5 TOTAL ITERATIONS
  MAXIMUM CONCENTRATION CHANGES FOR EACH ITERATION:
  MAX. CHANGE LAYER,ROW,COL MAX. CHANGE LAYER,ROW,COL MAX. CHANGE LAYER,ROW,COL MAX. CHANGE LAYER,ROW,COL MAX. CHANGE LAYER,ROW,COL
 ------------------------------------------------------------------------------------------------------------------------------------
   0.2389E-01 (  2,  1, 82)  0.4578E-03 (  3,  1, 77)  0.2034E-04 (  3,  1, 80)  0.5809E-06 (  4,  1, 80)  0.2211E-07 (  3,  1, 77)


                                          ================================================
                                                         FROM TIME =   1900.0     TO    1910.0    

 
 SOLVING FOR HEAD 
 FLOW MODEL IS TRANSIENT
 FLOW MODEL CONTAINS CONSTANT-HEAD CELLS


 MAXIMUM STEPSIZE DURING WHICH ANY PARTICLE CANNOT MOVE MORE THAN ONE CELL
 =  6.059    (WHEN MIN. R.F.=1)  AT K=   7, I=   1, J=  49

 MAXIMUM STEPSIZE WHICH MEETS STABILITY CRITERION OF THE ADVECTION TERM
 (FOR PURE FINITE-DIFFERENCE OPTION, MIXELM=0) 
 =  3.660    (WHEN MIN. R.F.=1)  AT K=   2, I=   1, J=  80


 TOTAL NUMBER OF POINT SOURCES/SINKS PRESENT IN THE FLOW MODEL =    62

 MAXIMUM STEPSIZE WHICH MEETS STABILITY CRITERION OF THE SINK & SOURCE TERM
 =  329.4    (WHEN MIN. R.F.=1)  AT K=   2, I=   1, J= 120

 MAXIMUM STEPSIZE WHICH MEETS STABILITY CRITERION OF THE DISPERSION TERM
 =  20.29    (WHEN MIN. R.F.=1)  AT K=   1, I=   1, J=  31


     1 CALLS TO GCG PACKAGE FOR TRANSPORT TIME STEP   1 IN FLOW TIME STEP 191 STRESS PERIOD   1
     6 TOTAL ITERATIONS

 NO OUTPUT CONTROL FOR STRESS PERIOD    1   TIME STEP 191
 
 SOLVING FOR HEAD 
 FLOW MODEL IS TRANSIENT
 FLOW MODEL CONTAINS CONSTANT-HEAD CELLS


 MAXIMUM STEPSIZE DURING WHICH ANY PARTICLE CANNOT MOVE MORE THAN ONE CELL
 =  5.721    (WHEN MIN. R.F.=1)  AT K=   4, I=   1, J=  73

 MAXIMUM STEPSIZE WHICH MEETS STABILITY CRITERION OF THE ADVECTION TERM
 (FOR PURE FINITE-DIFFERENCE OPTION, MIXELM=0) 
 =  3.340    (WHEN MIN. R.F.=1)  AT K=   2, I=   1, J=  80


 TOTAL NUMBER OF POINT SOURCES/SINKS PRESENT IN THE FLOW MODEL =    62

 MAXIMUM STEPSIZE WHICH MEETS STABILITY CRITERION OF THE SINK & SOURCE TERM
 =  309.1    (WHEN MIN. R.F.=1)  AT K=   2, I=   1, J= 120

 MAXIMUM STEPSIZE WHICH MEETS STABILITY CRITERION OF THE DISPERSION TERM
 =  20.29    (WHEN MIN. R.F.=1)  AT K=   1, I=   1, J=  31
     1 CALLS TO GCG PACKAGE FOR TRANSPORT TIME STEP   2 IN FLOW TIME STEP 191 STRESS PERIOD   1
     6 TOTAL ITERATIONS
 
 SOLVING FOR HEAD 
 FLOW MODEL IS TRANSIENT
 FLOW MODEL CONTAINS CONSTANT-HEAD CELLS


 MAXIMUM STEPSIZE DURING WHICH ANY PARTICLE CANNOT MOVE MORE THAN ONE CELL
 =  5.419    (WHEN MIN. R.F.=1)  AT K=   4, I=   1, J=  73

 MAXIMUM STEPSIZE WHICH MEETS STABILITY CRITERION OF THE ADVECTION TERM
 (FOR PURE FINITE-DIFFERENCE OPTION, MIXELM=0) 
 =  3.238    (WHEN MIN. R.F.=1)  AT K=   2, I=   1, J=  80


 TOTAL NUMBER OF POINT SOURCES/SINKS PRESENT IN THE FLOW MODEL =    62

 MAXIMUM STEPSIZE WHICH MEETS STABILITY CRITERION OF THE SINK & SOURCE TERM
 =  308.6    (WHEN MIN. R.F.=1)  AT K=   2, I=   1, J=   1

 MAXIMUM STEPSIZE WHICH MEETS STABILITY CRITERION OF THE DISPERSION TERM
 =  20.29    (WHEN MIN. R.F.=1)  AT K=   1, I=   1, J=  31
     1 CALLS TO GCG PACKAGE FOR TRANSPORT TIME STEP   3 IN FLOW TIME STEP 191 STRESS PERIOD   1
     6 TOTAL ITERATIONS
 
 SOLVING FOR HEAD 
 FLOW MODEL IS TRANSIENT
 FLOW MODEL CONTAINS CONSTANT-HEAD CELLS


 MAXIMUM STEPSIZE DURING WHICH ANY PARTICLE CANNOT MOVE MORE THAN ONE CELL
 =  5.212    (WHEN MIN. R.F.=1)  AT K=   4, I=   1, J=  73

 MAXIMUM STEPSIZE WHICH MEETS STABILITY CRITERION OF THE ADVECTION TERM
 (FOR PURE FINITE-DIFFERENCE OPTION, MIXELM=0) 
 =  3.295    (WHEN MIN. R.F.=1)  AT K=   2, I=   1, J=  80


 TOTAL NUMBER OF POINT SOURCES/SINKS PRESENT IN THE FLOW MODEL =    62

 MAXIMUM STEPSIZE WHICH MEETS STABILITY CRITERION OF THE SINK & SOURCE TERM
 =  301.2    (WHEN MIN. R.F.=1)  AT K=   2, I=   1, J=   1

 MAXIMUM STEPSIZE WHICH MEETS STABILITY CRITERION OF THE DISPERSION TERM
 =  20.29    (WHEN MIN. R.F.=1)  AT K=   1, I=   1, J=  31
     1 CALLS TO GCG PACKAGE FOR TRANSPORT TIME STEP   4 IN FLOW TIME STEP 191 STRESS PERIOD   1
     5 TOTAL ITERATIONS
  MAXIMUM CONCENTRATION CHANGES FOR EACH ITERATION:
  MAX. CHANGE LAYER,ROW,COL MAX. CHANGE LAYER,ROW,COL MAX. CHANGE LAYER,ROW,COL MAX. CHANGE LAYER,ROW,COL MAX. CHANGE LAYER,ROW,COL
 ------------------------------------------------------------------------------------------------------------------------------------
   0.2967E-01 (  2,  1, 81)  0.8864E-03 (  2,  1, 79)  0.5495E-04 (  3,  1, 79)  0.2036E-05 (  4,  1, 79)  0.7607E-07 (  4,  1, 78)


                                          ================================================
                                                         FROM TIME =   1910.0     TO    1920.0    

 
 SOLVING FOR HEAD 
 FLOW MODEL IS TRANSIENT
 FLOW MODEL CONTAINS CONSTANT-HEAD CELLS


 MAXIMUM STEPSIZE DURING WHICH ANY PARTICLE CANNOT MOVE MORE THAN ONE CELL
 =  5.091    (WHEN MIN. R.F.=1)  AT K=   4, I=   1, J=  73

 MAXIMUM STEPSIZE WHICH MEETS STABILITY CRITERION OF THE ADVECTION TERM
 (FOR PURE FINITE-DIFFERENCE OPTION, MIXELM=0) 
 =  3.517    (WHEN MIN. R.F.=1)  AT K=   2, I=   1, J=  80


 TOTAL NUMBER OF POINT SOURCES/SINKS PRESENT IN THE FLOW MODEL =    62

 MAXIMUM STEPSIZE WHICH MEETS STABILITY CRITERION OF THE SINK & SOURCE TERM
 =  306.3    (WHEN MIN. R.F.=1)  AT K=   2, I=   1, J=   1

 MAXIMUM STEPSIZE WHICH MEETS STABILITY CRITERION OF THE DISPERSION TERM
 =  20.29    (WHEN MIN. R.F.=1)  AT K=   1, I=   1, J=  31


     1 CALLS TO GCG PACKAGE FOR TRANSPORT TIME STEP   1 IN FLOW TIME STEP 192 STRESS PERIOD   1
     6 TOTAL ITERATIONS

 NO OUTPUT CONTROL FOR STRESS PERIOD    1   TIME STEP 192
 
 SOLVING FOR HEAD 
 FLOW MODEL IS TRANSIENT
 FLOW MODEL CONTAINS CONSTANT-HEAD CELLS


 MAXIMUM STEPSIZE DURING WHICH ANY PARTICLE CANNOT MOVE MORE THAN ONE CELL
 =  5.001    (WHEN MIN. R.F.=1)  AT K=   4, I=   1, J=  73

 MAXIMUM STEPSIZE WHICH MEETS STABILITY CRITERION OF THE ADVECTION TERM
 (FOR PURE FINITE-DIFFERENCE OPTION, MIXELM=0) 
 =  3.413    (WHEN MIN. R.F.=1)  AT K=   2, I=   1, J=  79


 TOTAL NUMBER OF POINT SOURCES/SINKS PRESENT IN THE FLOW MODEL =    62

 MAXIMUM STEPSIZE WHICH MEETS STABILITY CRITERION OF THE SINK & SOURCE TERM
 =  295.5    (WHEN MIN. R.F.=1)  AT K=   2, I=   1, J=   1

 MAXIMUM STEPSIZE WHICH MEETS STABILITY CRITERION OF THE DISPERSION TERM
 =  20.29    (WHEN MIN. R.F.=1)  AT K=   1, I=   1, J=  31
     1 CALLS TO GCG PACKAGE FOR TRANSPORT TIME STEP   2 IN FLOW TIME STEP 192 STRESS PERIOD   1
     6 TOTAL ITERATIONS
 
 SOLVING FOR HEAD 
 FLOW MODEL IS TRANSIENT
 FLOW MODEL CONTAINS CONSTANT-HEAD CELLS


 MAXIMUM STEPSIZE DURING WHICH ANY PARTICLE CANNOT MOVE MORE THAN ONE CELL
 =  4.968    (WHEN MIN. R.F.=1)  AT K=   4, I=   1, J=  73

 MAXIMUM STEPSIZE WHICH MEETS STABILITY CRITERION OF THE ADVECTION TERM
 (FOR PURE FINITE-DIFFERENCE OPTION, MIXELM=0) 
 =  3.244    (WHEN MIN. R.F.=1)  AT K=   2, I=   1, J=  79


 TOTAL NUMBER OF POINT SOURCES/SINKS PRESENT IN THE FLOW MODEL =    62

 MAXIMUM STEPSIZE WHICH MEETS STABILITY CRITERION OF THE SINK & SOURCE TERM
 =  296.9    (WHEN MIN. R.F.=1)  AT K=   2, I=   1, J=   1

 MAXIMUM STEPSIZE WHICH MEETS STABILITY CRITERION OF THE DISPERSION TERM
 =  20.29    (WHEN MIN. R.F.=1)  AT K=   1, I=   1, J=  31
     1 CALLS TO GCG PACKAGE FOR TRANSPORT TIME STEP   3 IN FLOW TIME STEP 192 STRESS PERIOD   1
     6 TOTAL ITERATIONS
 
 SOLVING FOR HEAD 
 FLOW MODEL IS TRANSIENT
 FLOW MODEL CONTAINS CONSTANT-HEAD CELLS


 MAXIMUM STEPSIZE DURING WHICH ANY PARTICLE CANNOT MOVE MORE THAN ONE CELL
 =  4.990    (WHEN MIN. R.F.=1)  AT K=   4, I=   1, J=  73

 MAXIMUM STEPSIZE WHICH MEETS STABILITY CRITERION OF THE ADVECTION TERM
 (FOR PURE FINITE-DIFFERENCE OPTION, MIXELM=0) 
 =  3.224    (WHEN MIN. R.F.=1)  AT K=   2, I=   1, J=  79


 TOTAL NUMBER OF POINT SOURCES/SINKS PRESENT IN THE FLOW MODEL =    62

 MAXIMUM STEPSIZE WHICH MEETS STABILITY CRITERION OF THE SINK & SOURCE TERM
 =  298.1    (WHEN MIN. R.F.=1)  AT K=   2, I=   1, J=   1

 MAXIMUM STEPSIZE WHICH MEETS STABILITY CRITERION OF THE DISPERSION TERM
 =  20.29    (WHEN MIN. R.F.=1)  AT K=   1, I=   1, J=  31
     1 CALLS TO GCG PACKAGE FOR TRANSPORT TIME STEP   4 IN FLOW TIME STEP 192 STRESS PERIOD   1
     6 TOTAL ITERATIONS
  MAXIMUM CONCENTRATION CHANGES FOR EACH ITERATION:
  MAX. CHANGE LAYER,ROW,COL MAX. CHANGE LAYER,ROW,COL MAX. CHANGE LAYER,ROW,COL MAX. CHANGE LAYER,ROW,COL MAX. CHANGE LAYER,ROW,COL
 ------------------------------------------------------------------------------------------------------------------------------------
   0.3518E-01 (  2,  1, 80)  0.1068E-02 (  2,  1, 80)  0.6600E-04 (  3,  1, 78)  0.2932E-05 (  4,  1, 78)  0.1242E-06 (  5,  1, 78)
   0.6980E-08 (  3,  1, 81)


                                          ================================================
                                                         FROM TIME =   1920.0     TO    1930.0    

 
 SOLVING FOR HEAD 
 FLOW MODEL IS TRANSIENT
 FLOW MODEL CONTAINS CONSTANT-HEAD CELLS


 MAXIMUM STEPSIZE DURING WHICH ANY PARTICLE CANNOT MOVE MORE THAN ONE CELL
 =  5.055    (WHEN MIN. R.F.=1)  AT K=   4, I=   1, J=  73

 MAXIMUM STEPSIZE WHICH MEETS STABILITY CRITERION OF THE ADVECTION TERM
 (FOR PURE FINITE-DIFFERENCE OPTION, MIXELM=0) 
 =  3.323    (WHEN MIN. R.F.=1)  AT K=   2, I=   1, J=  79


 TOTAL NUMBER OF POINT SOURCES/SINKS PRESENT IN THE FLOW MODEL =    62

 MAXIMUM STEPSIZE WHICH MEETS STABILITY CRITERION OF THE SINK & SOURCE TERM
 =  297.1    (WHEN MIN. R.F.=1)  AT K=   2, I=   1, J=   1

 MAXIMUM STEPSIZE WHICH MEETS STABILITY CRITERION OF THE DISPERSION TERM
 =  20.29    (WHEN MIN. R.F.=1)  AT K=   1, I=   1, J=  31


     1 CALLS TO GCG PACKAGE FOR TRANSPORT TIME STEP   1 IN FLOW TIME STEP 193 STRESS PERIOD   1
     6 TOTAL ITERATIONS

 NO OUTPUT CONTROL FOR STRESS PERIOD    1   TIME STEP 193
 
 SOLVING FOR HEAD 
 FLOW MODEL IS TRANSIENT
 FLOW MODEL CONTAINS CONSTANT-HEAD CELLS


 MAXIMUM STEPSIZE DURING WHICH ANY PARTICLE CANNOT MOVE MORE THAN ONE CELL
 =  5.146    (WHEN MIN. R.F.=1)  AT K=   5, I=   1, J=  73

 MAXIMUM STEPSIZE WHICH MEETS STABILITY CRITERION OF THE ADVECTION TERM
 (FOR PURE FINITE-DIFFERENCE OPTION, MIXELM=0) 
 =  3.634    (WHEN MIN. R.F.=1)  AT K=   2, I=   1, J=  79


 TOTAL NUMBER OF POINT SOURCES/SINKS PRESENT IN THE FLOW MODEL =    62

 MAXIMUM STEPSIZE WHICH MEETS STABILITY CRITERION OF THE SINK & SOURCE TERM
 =  292.5    (WHEN MIN. R.F.=1)  AT K=   2, I=   1, J=   1

 MAXIMUM STEPSIZE WHICH MEETS STABILITY CRITERION OF THE DISPERSION TERM
 =  20.29    (WHEN MIN. R.F.=1)  AT K=   1, I=   1, J=  31
     1 CALLS TO GCG PACKAGE FOR TRANSPORT TIME STEP   2 IN FLOW TIME STEP 193 STRESS PERIOD   1
     6 TOTAL ITERATIONS
 
 SOLVING FOR HEAD 
 FLOW MODEL IS TRANSIENT
 FLOW MODEL CONTAINS CONSTANT-HEAD CELLS


 MAXIMUM STEPSIZE DURING WHICH ANY PARTICLE CANNOT MOVE MORE THAN ONE CELL
 =  5.221    (WHEN MIN. R.F.=1)  AT K=   5, I=   1, J=  73

 MAXIMUM STEPSIZE WHICH MEETS STABILITY CRITERION OF THE ADVECTION TERM
 (FOR PURE FINITE-DIFFERENCE OPTION, MIXELM=0) 
 =  3.470    (WHEN MIN. R.F.=1)  AT K=   2, I=   1, J=  78


 TOTAL NUMBER OF POINT SOURCES/SINKS PRESENT IN THE FLOW MODEL =    62

 MAXIMUM STEPSIZE WHICH MEETS STABILITY CRITERION OF THE SINK & SOURCE TERM
 =  289.4    (WHEN MIN. R.F.=1)  AT K=   2, I=   1, J=   1

 MAXIMUM STEPSIZE WHICH MEETS STABILITY CRITERION OF THE DISPERSION TERM
 =  20.29    (WHEN MIN. R.F.=1)  AT K=   1, I=   1, J=  31
     1 CALLS TO GCG PACKAGE FOR TRANSPORT TIME STEP   3 IN FLOW TIME STEP 193 STRESS PERIOD   1
     6 TOTAL ITERATIONS
 
 SOLVING FOR HEAD 
 FLOW MODEL IS TRANSIENT
 FLOW MODEL CONTAINS CONSTANT-HEAD CELLS


 MAXIMUM STEPSIZE DURING WHICH ANY PARTICLE CANNOT MOVE MORE THAN ONE CELL
 =  5.338    (WHEN MIN. R.F.=1)  AT K=   5, I=   1, J=  73

 MAXIMUM STEPSIZE WHICH MEETS STABILITY CRITERION OF THE ADVECTION TERM
 (FOR PURE FINITE-DIFFERENCE OPTION, MIXELM=0) 
 =  3.327    (WHEN MIN. R.F.=1)  AT K=   2, I=   1, J=  78


 TOTAL NUMBER OF POINT SOURCES/SINKS PRESENT IN THE FLOW MODEL =    62

 MAXIMUM STEPSIZE WHICH MEETS STABILITY CRITERION OF THE SINK & SOURCE TERM
 =  287.9    (WHEN MIN. R.F.=1)  AT K=   2, I=   1, J=   1

 MAXIMUM STEPSIZE WHICH MEETS STABILITY CRITERION OF THE DISPERSION TERM
 =  20.29    (WHEN MIN. R.F.=1)  AT K=   1, I=   1, J=  31
     1 CALLS TO GCG PACKAGE FOR TRANSPORT TIME STEP   4 IN FLOW TIME STEP 193 STRESS PERIOD   1
     6 TOTAL ITERATIONS
  MAXIMUM CONCENTRATION CHANGES FOR EACH ITERATION:
  MAX. CHANGE LAYER,ROW,COL MAX. CHANGE LAYER,ROW,COL MAX. CHANGE LAYER,ROW,COL MAX. CHANGE LAYER,ROW,COL MAX. CHANGE LAYER,ROW,COL
 ------------------------------------------------------------------------------------------------------------------------------------
   0.3171E-01 (  2,  1, 39)  0.1169E-02 (  2,  1, 79)  0.5342E-04 (  2,  1, 75)  0.4231E-05 (  3,  1, 75)  0.1776E-06 (  4,  1, 75)
   0.6393E-08 (  4,  1, 44)


                                          ================================================
                                                         FROM TIME =   1930.0     TO    1940.0    

 
 SOLVING FOR HEAD 
 FLOW MODEL IS TRANSIENT
 FLOW MODEL CONTAINS CONSTANT-HEAD CELLS


 MAXIMUM STEPSIZE DURING WHICH ANY PARTICLE CANNOT MOVE MORE THAN ONE CELL
 =  5.457    (WHEN MIN. R.F.=1)  AT K=   6, I=   1, J=  73

 MAXIMUM STEPSIZE WHICH MEETS STABILITY CRITERION OF THE ADVECTION TERM
 (FOR PURE FINITE-DIFFERENCE OPTION, MIXELM=0) 
 =  3.324    (WHEN MIN. R.F.=1)  AT K=   2, I=   1, J=  78


 TOTAL NUMBER OF POINT SOURCES/SINKS PRESENT IN THE FLOW MODEL =    62

 MAXIMUM STEPSIZE WHICH MEETS STABILITY CRITERION OF THE SINK & SOURCE TERM
 =  301.1    (WHEN MIN. R.F.=1)  AT K=   2, I=   1, J=   1

 MAXIMUM STEPSIZE WHICH MEETS STABILITY CRITERION OF THE DISPERSION TERM
 =  20.29    (WHEN MIN. R.F.=1)  AT K=   1, I=   1, J=  31


     1 CALLS TO GCG PACKAGE FOR TRANSPORT TIME STEP   1 IN FLOW TIME STEP 194 STRESS PERIOD   1
     6 TOTAL ITERATIONS

 NO OUTPUT CONTROL FOR STRESS PERIOD    1   TIME STEP 194
 
 SOLVING FOR HEAD 
 FLOW MODEL IS TRANSIENT
 FLOW MODEL CONTAINS CONSTANT-HEAD CELLS


 MAXIMUM STEPSIZE DURING WHICH ANY PARTICLE CANNOT MOVE MORE THAN ONE CELL
 =  5.554    (WHEN MIN. R.F.=1)  AT K=   6, I=   1, J=  73

 MAXIMUM STEPSIZE WHICH MEETS STABILITY CRITERION OF THE ADVECTION TERM
 (FOR PURE FINITE-DIFFERENCE OPTION, MIXELM=0) 
 =  3.435    (WHEN MIN. R.F.=1)  AT K=   2, I=   1, J=  78


 TOTAL NUMBER OF POINT SOURCES/SINKS PRESENT IN THE FLOW MODEL =    62

 MAXIMUM STEPSIZE WHICH MEETS STABILITY CRITERION OF THE SINK & SOURCE TERM
 =  289.6    (WHEN MIN. R.F.=1)  AT K=   2, I=   1, J=   1

 MAXIMUM STEPSIZE WHICH MEETS STABILITY CRITERION OF THE DISPERSION TERM
 =  20.29    (WHEN MIN. R.F.=1)  AT K=   1, I=   1, J=  31
     1 CALLS TO GCG PACKAGE FOR TRANSPORT TIME STEP   2 IN FLOW TIME STEP 194 STRESS PERIOD   1
     6 TOTAL ITERATIONS
 
 SOLVING FOR HEAD 
 FLOW MODEL IS TRANSIENT
 FLOW MODEL CONTAINS CONSTANT-HEAD CELLS


 MAXIMUM STEPSIZE DURING WHICH ANY PARTICLE CANNOT MOVE MORE THAN ONE CELL
 =  5.679    (WHEN MIN. R.F.=1)  AT K=   6, I=   1, J=  73

 MAXIMUM STEPSIZE WHICH MEETS STABILITY CRITERION OF THE ADVECTION TERM
 (FOR PURE FINITE-DIFFERENCE OPTION, MIXELM=0) 
 =  3.507    (WHEN MIN. R.F.=1)  AT K=   2, I=   1, J=  41


 TOTAL NUMBER OF POINT SOURCES/SINKS PRESENT IN THE FLOW MODEL =    62

 MAXIMUM STEPSIZE WHICH MEETS STABILITY CRITERION OF THE SINK & SOURCE TERM
 =  280.4    (WHEN MIN. R.F.=1)  AT K=   2, I=   1, J=   1

 MAXIMUM STEPSIZE WHICH MEETS STABILITY CRITERION OF THE DISPERSION TERM
 =  20.29    (WHEN MIN. R.F.=1)  AT K=   1, I=   1, J=  31
     1 CALLS TO GCG PACKAGE FOR TRANSPORT TIME STEP   3 IN FLOW TIME STEP 194 STRESS PERIOD   1
     6 TOTAL ITERATIONS
 
 SOLVING FOR HEAD 
 FLOW MODEL IS TRANSIENT
 FLOW MODEL CONTAINS CONSTANT-HEAD CELLS


 MAXIMUM STEPSIZE DURING WHICH ANY PARTICLE CANNOT MOVE MORE THAN ONE CELL
 =  5.788    (WHEN MIN. R.F.=1)  AT K=   7, I=   1, J=  73

 MAXIMUM STEPSIZE WHICH MEETS STABILITY CRITERION OF THE ADVECTION TERM
 (FOR PURE FINITE-DIFFERENCE OPTION, MIXELM=0) 
 =  3.418    (WHEN MIN. R.F.=1)  AT K=   2, I=   1, J=  41


 TOTAL NUMBER OF POINT SOURCES/SINKS PRESENT IN THE FLOW MODEL =    62

 MAXIMUM STEPSIZE WHICH MEETS STABILITY CRITERION OF THE SINK & SOURCE TERM
 =  271.3    (WHEN MIN. R.F.=1)  AT K=   2, I=   1, J=   1

 MAXIMUM STEPSIZE WHICH MEETS STABILITY CRITERION OF THE DISPERSION TERM
 =  20.29    (WHEN MIN. R.F.=1)  AT K=   1, I=   1, J=  31
     1 CALLS TO GCG PACKAGE FOR TRANSPORT TIME STEP   4 IN FLOW TIME STEP 194 STRESS PERIOD   1
     6 TOTAL ITERATIONS
  MAXIMUM CONCENTRATION CHANGES FOR EACH ITERATION:
  MAX. CHANGE LAYER,ROW,COL MAX. CHANGE LAYER,ROW,COL MAX. CHANGE LAYER,ROW,COL MAX. CHANGE LAYER,ROW,COL MAX. CHANGE LAYER,ROW,COL
 ------------------------------------------------------------------------------------------------------------------------------------
   0.2867E-01 (  2,  1, 40)  0.1305E-02 (  2,  1, 77)  0.5613E-04 (  3,  1, 42)  0.2677E-05 (  4,  1, 42)  0.1479E-06 (  5,  1, 80)
   0.9007E-08 (  4,  1, 45)


                                          ================================================
                                                         FROM TIME =   1940.0     TO    1950.0    

 
 SOLVING FOR HEAD 
 FLOW MODEL IS TRANSIENT
 FLOW MODEL CONTAINS CONSTANT-HEAD CELLS


 MAXIMUM STEPSIZE DURING WHICH ANY PARTICLE CANNOT MOVE MORE THAN ONE CELL
 =  5.895    (WHEN MIN. R.F.=1)  AT K=   7, I=   1, J=  73

 MAXIMUM STEPSIZE WHICH MEETS STABILITY CRITERION OF THE ADVECTION TERM
 (FOR PURE FINITE-DIFFERENCE OPTION, MIXELM=0) 
 =  3.428    (WHEN MIN. R.F.=1)  AT K=   2, I=   1, J=  77


 TOTAL NUMBER OF POINT SOURCES/SINKS PRESENT IN THE FLOW MODEL =    62

 MAXIMUM STEPSIZE WHICH MEETS STABILITY CRITERION OF THE SINK & SOURCE TERM
 =  275.0    (WHEN MIN. R.F.=1)  AT K=   2, I=   1, J=   1

 MAXIMUM STEPSIZE WHICH MEETS STABILITY CRITERION OF THE DISPERSION TERM
 =  20.29    (WHEN MIN. R.F.=1)  AT K=   1, I=   1, J=  31


     1 CALLS TO GCG PACKAGE FOR TRANSPORT TIME STEP   1 IN FLOW TIME STEP 195 STRESS PERIOD   1
     6 TOTAL ITERATIONS

 NO OUTPUT CONTROL FOR STRESS PERIOD    1   TIME STEP 195
 
 SOLVING FOR HEAD 
 FLOW MODEL IS TRANSIENT
 FLOW MODEL CONTAINS CONSTANT-HEAD CELLS


 MAXIMUM STEPSIZE DURING WHICH ANY PARTICLE CANNOT MOVE MORE THAN ONE CELL
 =  5.900    (WHEN MIN. R.F.=1)  AT K=   4, I=   1, J=  49

 MAXIMUM STEPSIZE WHICH MEETS STABILITY CRITERION OF THE ADVECTION TERM
 (FOR PURE FINITE-DIFFERENCE OPTION, MIXELM=0) 
 =  3.389    (WHEN MIN. R.F.=1)  AT K=   2, I=   1, J=  77


 TOTAL NUMBER OF POINT SOURCES/SINKS PRESENT IN THE FLOW MODEL =    62

 MAXIMUM STEPSIZE WHICH MEETS STABILITY CRITERION OF THE SINK & SOURCE TERM
 =  277.8    (WHEN MIN. R.F.=1)  AT K=   2, I=   1, J=   1

 MAXIMUM STEPSIZE WHICH MEETS STABILITY CRITERION OF THE DISPERSION TERM
 =  20.29    (WHEN MIN. R.F.=1)  AT K=   1, I=   1, J=  31
     1 CALLS TO GCG PACKAGE FOR TRANSPORT TIME STEP   2 IN FLOW TIME STEP 195 STRESS PERIOD   1
     6 TOTAL ITERATIONS
 
 SOLVING FOR HEAD 
 FLOW MODEL IS TRANSIENT
 FLOW MODEL CONTAINS CONSTANT-HEAD CELLS


 MAXIMUM STEPSIZE DURING WHICH ANY PARTICLE CANNOT MOVE MORE THAN ONE CELL
 =  5.663    (WHEN MIN. R.F.=1)  AT K=   4, I=   1, J=  49

 MAXIMUM STEPSIZE WHICH MEETS STABILITY CRITERION OF THE ADVECTION TERM
 (FOR PURE FINITE-DIFFERENCE OPTION, MIXELM=0) 
 =  3.452    (WHEN MIN. R.F.=1)  AT K=   2, I=   1, J=  77


 TOTAL NUMBER OF POINT SOURCES/SINKS PRESENT IN THE FLOW MODEL =    62

 MAXIMUM STEPSIZE WHICH MEETS STABILITY CRITERION OF THE SINK & SOURCE TERM
 =  283.0    (WHEN MIN. R.F.=1)  AT K=   2, I=   1, J=   1

 MAXIMUM STEPSIZE WHICH MEETS STABILITY CRITERION OF THE DISPERSION TERM
 =  20.29    (WHEN MIN. R.F.=1)  AT K=   1, I=   1, J=  31
     1 CALLS TO GCG PACKAGE FOR TRANSPORT TIME STEP   3 IN FLOW TIME STEP 195 STRESS PERIOD   1
     6 TOTAL ITERATIONS
 
 SOLVING FOR HEAD 
 FLOW MODEL IS TRANSIENT
 FLOW MODEL CONTAINS CONSTANT-HEAD CELLS


 MAXIMUM STEPSIZE DURING WHICH ANY PARTICLE CANNOT MOVE MORE THAN ONE CELL
 =  5.473    (WHEN MIN. R.F.=1)  AT K=   4, I=   1, J=  49

 MAXIMUM STEPSIZE WHICH MEETS STABILITY CRITERION OF THE ADVECTION TERM
 (FOR PURE FINITE-DIFFERENCE OPTION, MIXELM=0) 
 =  3.368    (WHEN MIN. R.F.=1)  AT K=   2, I=   1, J=  42


 TOTAL NUMBER OF POINT SOURCES/SINKS PRESENT IN THE FLOW MODEL =    62

 MAXIMUM STEPSIZE WHICH MEETS STABILITY CRITERION OF THE SINK & SOURCE TERM
 =  285.3    (WHEN MIN. R.F.=1)  AT K=   2, I=   1, J=   1

 MAXIMUM STEPSIZE WHICH MEETS STABILITY CRITERION OF THE DISPERSION TERM
 =  20.29    (WHEN MIN. R.F.=1)  AT K=   1, I=   1, J=  31
     1 CALLS TO GCG PACKAGE FOR TRANSPORT TIME STEP   4 IN FLOW TIME STEP 195 STRESS PERIOD   1
     6 TOTAL ITERATIONS
  MAXIMUM CONCENTRATION CHANGES FOR EACH ITERATION:
  MAX. CHANGE LAYER,ROW,COL MAX. CHANGE LAYER,ROW,COL MAX. CHANGE LAYER,ROW,COL MAX. CHANGE LAYER,ROW,COL MAX. CHANGE LAYER,ROW,COL
 ------------------------------------------------------------------------------------------------------------------------------------
   0.3168E-01 (  2,  1, 78)  0.1296E-02 (  2,  1, 76)  0.6257E-04 (  3,  1, 76)  0.2458E-05 (  4,  1, 43)  0.1089E-06 (  3,  1, 74)
   0.6140E-08 (  4,  1, 46)


                                          ================================================
                                                         FROM TIME =   1950.0     TO    1960.0    

 
 SOLVING FOR HEAD 
 FLOW MODEL IS TRANSIENT
 FLOW MODEL CONTAINS CONSTANT-HEAD CELLS


 MAXIMUM STEPSIZE DURING WHICH ANY PARTICLE CANNOT MOVE MORE THAN ONE CELL
 =  5.334    (WHEN MIN. R.F.=1)  AT K=   4, I=   1, J=  49

 MAXIMUM STEPSIZE WHICH MEETS STABILITY CRITERION OF THE ADVECTION TERM
 (FOR PURE FINITE-DIFFERENCE OPTION, MIXELM=0) 
 =  3.371    (WHEN MIN. R.F.=1)  AT K=   2, I=   1, J=  42


 TOTAL NUMBER OF POINT SOURCES/SINKS PRESENT IN THE FLOW MODEL =    62

 MAXIMUM STEPSIZE WHICH MEETS STABILITY CRITERION OF THE SINK & SOURCE TERM
 =  295.2    (WHEN MIN. R.F.=1)  AT K=   2, I=   1, J=   1

 MAXIMUM STEPSIZE WHICH MEETS STABILITY CRITERION OF THE DISPERSION TERM
 =  20.29    (WHEN MIN. R.F.=1)  AT K=   1, I=   1, J=  31


     1 CALLS TO GCG PACKAGE FOR TRANSPORT TIME STEP   1 IN FLOW TIME STEP 196 STRESS PERIOD   1
     6 TOTAL ITERATIONS

 NO OUTPUT CONTROL FOR STRESS PERIOD    1   TIME STEP 196
 
 SOLVING FOR HEAD 
 FLOW MODEL IS TRANSIENT
 FLOW MODEL CONTAINS CONSTANT-HEAD CELLS


 MAXIMUM STEPSIZE DURING WHICH ANY PARTICLE CANNOT MOVE MORE THAN ONE CELL
 =  5.224    (WHEN MIN. R.F.=1)  AT K=   4, I=   1, J=  49

 MAXIMUM STEPSIZE WHICH MEETS STABILITY CRITERION OF THE ADVECTION TERM
 (FOR PURE FINITE-DIFFERENCE OPTION, MIXELM=0) 
 =  3.477    (WHEN MIN. R.F.=1)  AT K=   2, I=   1, J=  42


 TOTAL NUMBER OF POINT SOURCES/SINKS PRESENT IN THE FLOW MODEL =    62

 MAXIMUM STEPSIZE WHICH MEETS STABILITY CRITERION OF THE SINK & SOURCE TERM
 =  295.0    (WHEN MIN. R.F.=1)  AT K=   2, I=   1, J=   1

 MAXIMUM STEPSIZE WHICH MEETS STABILITY CRITERION OF THE DISPERSION TERM
 =  20.29    (WHEN MIN. R.F.=1)  AT K=   1, I=   1, J=  31
     1 CALLS TO GCG PACKAGE FOR TRANSPORT TIME STEP   2 IN FLOW TIME STEP 196 STRESS PERIOD   1
     6 TOTAL ITERATIONS
 
 SOLVING FOR HEAD 
 FLOW MODEL IS TRANSIENT
 FLOW MODEL CONTAINS CONSTANT-HEAD CELLS


 MAXIMUM STEPSIZE DURING WHICH ANY PARTICLE CANNOT MOVE MORE THAN ONE CELL
 =  5.152    (WHEN MIN. R.F.=1)  AT K=   4, I=   1, J=  49

 MAXIMUM STEPSIZE WHICH MEETS STABILITY CRITERION OF THE ADVECTION TERM
 (FOR PURE FINITE-DIFFERENCE OPTION, MIXELM=0) 
 =  3.599    (WHEN MIN. R.F.=1)  AT K=   2, I=   1, J=  76


 TOTAL NUMBER OF POINT SOURCES/SINKS PRESENT IN THE FLOW MODEL =    62

 MAXIMUM STEPSIZE WHICH MEETS STABILITY CRITERION OF THE SINK & SOURCE TERM
 =  300.0    (WHEN MIN. R.F.=1)  AT K=   2, I=   1, J=   1

 MAXIMUM STEPSIZE WHICH MEETS STABILITY CRITERION OF THE DISPERSION TERM
 =  20.29    (WHEN MIN. R.F.=1)  AT K=   1, I=   1, J=  31
     1 CALLS TO GCG PACKAGE FOR TRANSPORT TIME STEP   3 IN FLOW TIME STEP 196 STRESS PERIOD   1
     6 TOTAL ITERATIONS
 
 SOLVING FOR HEAD 
 FLOW MODEL IS TRANSIENT
 FLOW MODEL CONTAINS CONSTANT-HEAD CELLS


 MAXIMUM STEPSIZE DURING WHICH ANY PARTICLE CANNOT MOVE MORE THAN ONE CELL
 =  5.115    (WHEN MIN. R.F.=1)  AT K=   4, I=   1, J=  49

 MAXIMUM STEPSIZE WHICH MEETS STABILITY CRITERION OF THE ADVECTION TERM
 (FOR PURE FINITE-DIFFERENCE OPTION, MIXELM=0) 
 =  3.519    (WHEN MIN. R.F.=1)  AT K=   2, I=   1, J=  43


 TOTAL NUMBER OF POINT SOURCES/SINKS PRESENT IN THE FLOW MODEL =    62

 MAXIMUM STEPSIZE WHICH MEETS STABILITY CRITERION OF THE SINK & SOURCE TERM
 =  302.8    (WHEN MIN. R.F.=1)  AT K=   2, I=   1, J=   1

 MAXIMUM STEPSIZE WHICH MEETS STABILITY CRITERION OF THE DISPERSION TERM
 =  20.29    (WHEN MIN. R.F.=1)  AT K=   1, I=   1, J=  31
     1 CALLS TO GCG PACKAGE FOR TRANSPORT TIME STEP   4 IN FLOW TIME STEP 196 STRESS PERIOD   1
     6 TOTAL ITERATIONS
  MAXIMUM CONCENTRATION CHANGES FOR EACH ITERATION:
  MAX. CHANGE LAYER,ROW,COL MAX. CHANGE LAYER,ROW,COL MAX. CHANGE LAYER,ROW,COL MAX. CHANGE LAYER,ROW,COL MAX. CHANGE LAYER,ROW,COL
 ------------------------------------------------------------------------------------------------------------------------------------
   0.3193E-01 (  2,  1, 77)  0.1098E-02 (  2,  1, 74)  0.4838E-04 (  2,  1, 78)  0.2911E-05 (  3,  1, 46)  0.1292E-06 (  4,  1, 46)
   0.6391E-08 (  4,  1, 79)


                                          ================================================
                                                         FROM TIME =   1960.0     TO    1970.0    

 
 SOLVING FOR HEAD 
 FLOW MODEL IS TRANSIENT
 FLOW MODEL CONTAINS CONSTANT-HEAD CELLS


 MAXIMUM STEPSIZE DURING WHICH ANY PARTICLE CANNOT MOVE MORE THAN ONE CELL
 =  5.108    (WHEN MIN. R.F.=1)  AT K=   4, I=   1, J=  49

 MAXIMUM STEPSIZE WHICH MEETS STABILITY CRITERION OF THE ADVECTION TERM
 (FOR PURE FINITE-DIFFERENCE OPTION, MIXELM=0) 
 =  3.421    (WHEN MIN. R.F.=1)  AT K=   2, I=   1, J=  43


 TOTAL NUMBER OF POINT SOURCES/SINKS PRESENT IN THE FLOW MODEL =    62

 MAXIMUM STEPSIZE WHICH MEETS STABILITY CRITERION OF THE SINK & SOURCE TERM
 =  315.4    (WHEN MIN. R.F.=1)  AT K=   2, I=   1, J=   1

 MAXIMUM STEPSIZE WHICH MEETS STABILITY CRITERION OF THE DISPERSION TERM
 =  20.29    (WHEN MIN. R.F.=1)  AT K=   1, I=   1, J=  31


     1 CALLS TO GCG PACKAGE FOR TRANSPORT TIME STEP   1 IN FLOW TIME STEP 197 STRESS PERIOD   1
     6 TOTAL ITERATIONS

 NO OUTPUT CONTROL FOR STRESS PERIOD    1   TIME STEP 197
 
 SOLVING FOR HEAD 
 FLOW MODEL IS TRANSIENT
 FLOW MODEL CONTAINS CONSTANT-HEAD CELLS


 MAXIMUM STEPSIZE DURING WHICH ANY PARTICLE CANNOT MOVE MORE THAN ONE CELL
 =  5.131    (WHEN MIN. R.F.=1)  AT K=   4, I=   1, J=  49

 MAXIMUM STEPSIZE WHICH MEETS STABILITY CRITERION OF THE ADVECTION TERM
 (FOR PURE FINITE-DIFFERENCE OPTION, MIXELM=0) 
 =  3.437    (WHEN MIN. R.F.=1)  AT K=   2, I=   1, J=  43


 TOTAL NUMBER OF POINT SOURCES/SINKS PRESENT IN THE FLOW MODEL =    62

 MAXIMUM STEPSIZE WHICH MEETS STABILITY CRITERION OF THE SINK & SOURCE TERM
 =  314.1    (WHEN MIN. R.F.=1)  AT K=   2, I=   1, J=   1

 MAXIMUM STEPSIZE WHICH MEETS STABILITY CRITERION OF THE DISPERSION TERM
 =  20.29    (WHEN MIN. R.F.=1)  AT K=   1, I=   1, J=  31
     1 CALLS TO GCG PACKAGE FOR TRANSPORT TIME STEP   2 IN FLOW TIME STEP 197 STRESS PERIOD   1
     6 TOTAL ITERATIONS
 
 SOLVING FOR HEAD 
 FLOW MODEL IS TRANSIENT
 FLOW MODEL CONTAINS CONSTANT-HEAD CELLS


 MAXIMUM STEPSIZE DURING WHICH ANY PARTICLE CANNOT MOVE MORE THAN ONE CELL
 =  5.174    (WHEN MIN. R.F.=1)  AT K=   4, I=   1, J=  49

 MAXIMUM STEPSIZE WHICH MEETS STABILITY CRITERION OF THE ADVECTION TERM
 (FOR PURE FINITE-DIFFERENCE OPTION, MIXELM=0) 
 =  3.570    (WHEN MIN. R.F.=1)  AT K=   2, I=   1, J=  43


 TOTAL NUMBER OF POINT SOURCES/SINKS PRESENT IN THE FLOW MODEL =    62

 MAXIMUM STEPSIZE WHICH MEETS STABILITY CRITERION OF THE SINK & SOURCE TERM
 =  327.7    (WHEN MIN. R.F.=1)  AT K=   2, I=   1, J=   1

 MAXIMUM STEPSIZE WHICH MEETS STABILITY CRITERION OF THE DISPERSION TERM
 =  20.29    (WHEN MIN. R.F.=1)  AT K=   1, I=   1, J=  31
     1 CALLS TO GCG PACKAGE FOR TRANSPORT TIME STEP   3 IN FLOW TIME STEP 197 STRESS PERIOD   1
     6 TOTAL ITERATIONS
 
 SOLVING FOR HEAD 
 FLOW MODEL IS TRANSIENT
 FLOW MODEL CONTAINS CONSTANT-HEAD CELLS


 MAXIMUM STEPSIZE DURING WHICH ANY PARTICLE CANNOT MOVE MORE THAN ONE CELL
 =  5.240    (WHEN MIN. R.F.=1)  AT K=   4, I=   1, J=  49

 MAXIMUM STEPSIZE WHICH MEETS STABILITY CRITERION OF THE ADVECTION TERM
 (FOR PURE FINITE-DIFFERENCE OPTION, MIXELM=0) 
 =  3.842    (WHEN MIN. R.F.=1)  AT K=   2, I=   1, J=  44


 TOTAL NUMBER OF POINT SOURCES/SINKS PRESENT IN THE FLOW MODEL =    62

 MAXIMUM STEPSIZE WHICH MEETS STABILITY CRITERION OF THE SINK & SOURCE TERM
 =  320.4    (WHEN MIN. R.F.=1)  AT K=   2, I=   1, J=   1

 MAXIMUM STEPSIZE WHICH MEETS STABILITY CRITERION OF THE DISPERSION TERM
 =  20.29    (WHEN MIN. R.F.=1)  AT K=   1, I=   1, J=  31
     1 CALLS TO GCG PACKAGE FOR TRANSPORT TIME STEP   4 IN FLOW TIME STEP 197 STRESS PERIOD   1
     5 TOTAL ITERATIONS
  MAXIMUM CONCENTRATION CHANGES FOR EACH ITERATION:
  MAX. CHANGE LAYER,ROW,COL MAX. CHANGE LAYER,ROW,COL MAX. CHANGE LAYER,ROW,COL MAX. CHANGE LAYER,ROW,COL MAX. CHANGE LAYER,ROW,COL
 ------------------------------------------------------------------------------------------------------------------------------------
   0.2749E-01 (  2,  1, 42)  0.1049E-02 (  2,  1, 75)  0.3391E-04 (  2,  1, 75)  0.1769E-05 (  3,  1, 74)  0.9144E-07 (  4,  1, 81)


                                          ================================================
                                                         FROM TIME =   1970.0     TO    1980.0    

 
 SOLVING FOR HEAD 
 FLOW MODEL IS TRANSIENT
 FLOW MODEL CONTAINS CONSTANT-HEAD CELLS


 MAXIMUM STEPSIZE DURING WHICH ANY PARTICLE CANNOT MOVE MORE THAN ONE CELL
 =  5.312    (WHEN MIN. R.F.=1)  AT K=   5, I=   1, J=  49

 MAXIMUM STEPSIZE WHICH MEETS STABILITY CRITERION OF THE ADVECTION TERM
 (FOR PURE FINITE-DIFFERENCE OPTION, MIXELM=0) 
 =  3.621    (WHEN MIN. R.F.=1)  AT K=   2, I=   1, J=  44


 TOTAL NUMBER OF POINT SOURCES/SINKS PRESENT IN THE FLOW MODEL =    62

 MAXIMUM STEPSIZE WHICH MEETS STABILITY CRITERION OF THE SINK & SOURCE TERM
 =  330.3    (WHEN MIN. R.F.=1)  AT K=   2, I=   1, J=   1

 MAXIMUM STEPSIZE WHICH MEETS STABILITY CRITERION OF THE DISPERSION TERM
 =  20.29    (WHEN MIN. R.F.=1)  AT K=   1, I=   1, J=  31


     1 CALLS TO GCG PACKAGE FOR TRANSPORT TIME STEP   1 IN FLOW TIME STEP 198 STRESS PERIOD   1
     6 TOTAL ITERATIONS

 NO OUTPUT CONTROL FOR STRESS PERIOD    1   TIME STEP 198
 
 SOLVING FOR HEAD 
 FLOW MODEL IS TRANSIENT
 FLOW MODEL CONTAINS CONSTANT-HEAD CELLS


 MAXIMUM STEPSIZE DURING WHICH ANY PARTICLE CANNOT MOVE MORE THAN ONE CELL
 =  5.383    (WHEN MIN. R.F.=1)  AT K=   5, I=   1, J=  49

 MAXIMUM STEPSIZE WHICH MEETS STABILITY CRITERION OF THE ADVECTION TERM
 (FOR PURE FINITE-DIFFERENCE OPTION, MIXELM=0) 
 =  3.492    (WHEN MIN. R.F.=1)  AT K=   2, I=   1, J=  44


 TOTAL NUMBER OF POINT SOURCES/SINKS PRESENT IN THE FLOW MODEL =    62

 MAXIMUM STEPSIZE WHICH MEETS STABILITY CRITERION OF THE SINK & SOURCE TERM
 =  326.1    (WHEN MIN. R.F.=1)  AT K=   2, I=   1, J=   1

 MAXIMUM STEPSIZE WHICH MEETS STABILITY CRITERION OF THE DISPERSION TERM
 =  20.29    (WHEN MIN. R.F.=1)  AT K=   1, I=   1, J=  31
     1 CALLS TO GCG PACKAGE FOR TRANSPORT TIME STEP   2 IN FLOW TIME STEP 198 STRESS PERIOD   1
     6 TOTAL ITERATIONS
 
 SOLVING FOR HEAD 
 FLOW MODEL IS TRANSIENT
 FLOW MODEL CONTAINS CONSTANT-HEAD CELLS


 MAXIMUM STEPSIZE DURING WHICH ANY PARTICLE CANNOT MOVE MORE THAN ONE CELL
 =  5.468    (WHEN MIN. R.F.=1)  AT K=   5, I=   1, J=  49

 MAXIMUM STEPSIZE WHICH MEETS STABILITY CRITERION OF THE ADVECTION TERM
 (FOR PURE FINITE-DIFFERENCE OPTION, MIXELM=0) 
 =  3.520    (WHEN MIN. R.F.=1)  AT K=   2, I=   1, J=  44


 TOTAL NUMBER OF POINT SOURCES/SINKS PRESENT IN THE FLOW MODEL =    62

 MAXIMUM STEPSIZE WHICH MEETS STABILITY CRITERION OF THE SINK & SOURCE TERM
 =  338.7    (WHEN MIN. R.F.=1)  AT K=   2, I=   1, J=   1

 MAXIMUM STEPSIZE WHICH MEETS STABILITY CRITERION OF THE DISPERSION TERM
 =  20.29    (WHEN MIN. R.F.=1)  AT K=   1, I=   1, J=  31
     1 CALLS TO GCG PACKAGE FOR TRANSPORT TIME STEP   3 IN FLOW TIME STEP 198 STRESS PERIOD   1
     6 TOTAL ITERATIONS
 
 SOLVING FOR HEAD 
 FLOW MODEL IS TRANSIENT
 FLOW MODEL CONTAINS CONSTANT-HEAD CELLS


 MAXIMUM STEPSIZE DURING WHICH ANY PARTICLE CANNOT MOVE MORE THAN ONE CELL
 =  5.567    (WHEN MIN. R.F.=1)  AT K=   5, I=   1, J=  49

 MAXIMUM STEPSIZE WHICH MEETS STABILITY CRITERION OF THE ADVECTION TERM
 (FOR PURE FINITE-DIFFERENCE OPTION, MIXELM=0) 
 =  3.662    (WHEN MIN. R.F.=1)  AT K=   2, I=   1, J=  44


 TOTAL NUMBER OF POINT SOURCES/SINKS PRESENT IN THE FLOW MODEL =    62

 MAXIMUM STEPSIZE WHICH MEETS STABILITY CRITERION OF THE SINK & SOURCE TERM
 =  332.7    (WHEN MIN. R.F.=1)  AT K=   2, I=   1, J=   1

 MAXIMUM STEPSIZE WHICH MEETS STABILITY CRITERION OF THE DISPERSION TERM
 =  20.29    (WHEN MIN. R.F.=1)  AT K=   1, I=   1, J=  31
     1 CALLS TO GCG PACKAGE FOR TRANSPORT TIME STEP   4 IN FLOW TIME STEP 198 STRESS PERIOD   1
     5 TOTAL ITERATIONS
  MAXIMUM CONCENTRATION CHANGES FOR EACH ITERATION:
  MAX. CHANGE LAYER,ROW,COL MAX. CHANGE LAYER,ROW,COL MAX. CHANGE LAYER,ROW,COL MAX. CHANGE LAYER,ROW,COL MAX. CHANGE LAYER,ROW,COL
 ------------------------------------------------------------------------------------------------------------------------------------
   0.2347E-01 (  2,  1, 76)  0.5477E-03 (  2,  1, 45)  0.2177E-04 (  3,  1, 45)  0.8624E-06 (  3,  1, 47)  0.2647E-07 (  4,  1, 38)


                                          ================================================
                                                         FROM TIME =   1980.0     TO    1990.0    

 
 SOLVING FOR HEAD 
 FLOW MODEL IS TRANSIENT
 FLOW MODEL CONTAINS CONSTANT-HEAD CELLS


 MAXIMUM STEPSIZE DURING WHICH ANY PARTICLE CANNOT MOVE MORE THAN ONE CELL
 =  5.646    (WHEN MIN. R.F.=1)  AT K=   5, I=   1, J=  49

 MAXIMUM STEPSIZE WHICH MEETS STABILITY CRITERION OF THE ADVECTION TERM
 (FOR PURE FINITE-DIFFERENCE OPTION, MIXELM=0) 
 =  3.799    (WHEN MIN. R.F.=1)  AT K=   2, I=   1, J=  81


 TOTAL NUMBER OF POINT SOURCES/SINKS PRESENT IN THE FLOW MODEL =    62

 MAXIMUM STEPSIZE WHICH MEETS STABILITY CRITERION OF THE SINK & SOURCE TERM
 =  344.5    (WHEN MIN. R.F.=1)  AT K=   2, I=   1, J=   1

 MAXIMUM STEPSIZE WHICH MEETS STABILITY CRITERION OF THE DISPERSION TERM
 =  20.29    (WHEN MIN. R.F.=1)  AT K=   1, I=   1, J=  31


     1 CALLS TO GCG PACKAGE FOR TRANSPORT TIME STEP   1 IN FLOW TIME STEP 199 STRESS PERIOD   1
     6 TOTAL ITERATIONS

 NO OUTPUT CONTROL FOR STRESS PERIOD    1   TIME STEP 199
 
 SOLVING FOR HEAD 
 FLOW MODEL IS TRANSIENT
 FLOW MODEL CONTAINS CONSTANT-HEAD CELLS


 MAXIMUM STEPSIZE DURING WHICH ANY PARTICLE CANNOT MOVE MORE THAN ONE CELL
 =  5.764    (WHEN MIN. R.F.=1)  AT K=   6, I=   1, J=  49

 MAXIMUM STEPSIZE WHICH MEETS STABILITY CRITERION OF THE ADVECTION TERM
 (FOR PURE FINITE-DIFFERENCE OPTION, MIXELM=0) 
 =  3.632    (WHEN MIN. R.F.=1)  AT K=   2, I=   1, J=  81


 TOTAL NUMBER OF POINT SOURCES/SINKS PRESENT IN THE FLOW MODEL =    62

 MAXIMUM STEPSIZE WHICH MEETS STABILITY CRITERION OF THE SINK & SOURCE TERM
 =  322.5    (WHEN MIN. R.F.=1)  AT K=   2, I=   1, J=   1

 MAXIMUM STEPSIZE WHICH MEETS STABILITY CRITERION OF THE DISPERSION TERM
 =  20.29    (WHEN MIN. R.F.=1)  AT K=   1, I=   1, J=  31
     1 CALLS TO GCG PACKAGE FOR TRANSPORT TIME STEP   2 IN FLOW TIME STEP 199 STRESS PERIOD   1
     6 TOTAL ITERATIONS
 
 SOLVING FOR HEAD 
 FLOW MODEL IS TRANSIENT
 FLOW MODEL CONTAINS CONSTANT-HEAD CELLS


 MAXIMUM STEPSIZE DURING WHICH ANY PARTICLE CANNOT MOVE MORE THAN ONE CELL
 =  5.876    (WHEN MIN. R.F.=1)  AT K=   6, I=   1, J=  49

 MAXIMUM STEPSIZE WHICH MEETS STABILITY CRITERION OF THE ADVECTION TERM
 (FOR PURE FINITE-DIFFERENCE OPTION, MIXELM=0) 
 =  3.654    (WHEN MIN. R.F.=1)  AT K=   2, I=   1, J=  45


 TOTAL NUMBER OF POINT SOURCES/SINKS PRESENT IN THE FLOW MODEL =    62

 MAXIMUM STEPSIZE WHICH MEETS STABILITY CRITERION OF THE SINK & SOURCE TERM
 =  313.3    (WHEN MIN. R.F.=1)  AT K=   2, I=   1, J=   1

 MAXIMUM STEPSIZE WHICH MEETS STABILITY CRITERION OF THE DISPERSION TERM
 =  20.29    (WHEN MIN. R.F.=1)  AT K=   1, I=   1, J=  31
     1 CALLS TO GCG PACKAGE FOR TRANSPORT TIME STEP   3 IN FLOW TIME STEP 199 STRESS PERIOD   1
     6 TOTAL ITERATIONS
 
 SOLVING FOR HEAD 
 FLOW MODEL IS TRANSIENT
 FLOW MODEL CONTAINS CONSTANT-HEAD CELLS


 MAXIMUM STEPSIZE DURING WHICH ANY PARTICLE CANNOT MOVE MORE THAN ONE CELL
 =  5.947    (WHEN MIN. R.F.=1)  AT K=   4, I=   1, J=  60

 MAXIMUM STEPSIZE WHICH MEETS STABILITY CRITERION OF THE ADVECTION TERM
 (FOR PURE FINITE-DIFFERENCE OPTION, MIXELM=0) 
 =  3.644    (WHEN MIN. R.F.=1)  AT K=   2, I=   1, J=  45


 TOTAL NUMBER OF POINT SOURCES/SINKS PRESENT IN THE FLOW MODEL =    62

 MAXIMUM STEPSIZE WHICH MEETS STABILITY CRITERION OF THE SINK & SOURCE TERM
 =  306.2    (WHEN MIN. R.F.=1)  AT K=   2, I=   1, J=   1

 MAXIMUM STEPSIZE WHICH MEETS STABILITY CRITERION OF THE DISPERSION TERM
 =  20.29    (WHEN MIN. R.F.=1)  AT K=   1, I=   1, J=  31
     1 CALLS TO GCG PACKAGE FOR TRANSPORT TIME STEP   4 IN FLOW TIME STEP 199 STRESS PERIOD   1
     5 TOTAL ITERATIONS
  MAXIMUM CONCENTRATION CHANGES FOR EACH ITERATION:
  MAX. CHANGE LAYER,ROW,COL MAX. CHANGE LAYER,ROW,COL MAX. CHANGE LAYER,ROW,COL MAX. CHANGE LAYER,ROW,COL MAX. CHANGE LAYER,ROW,COL
 ------------------------------------------------------------------------------------------------------------------------------------
   0.2284E-01 (  2,  1, 82)  0.4690E-03 (  3,  1, 77)  0.2005E-04 (  3,  1, 80)  0.6038E-06 (  3,  1, 73)  0.2302E-07 (  4,  1, 73)


                                          ================================================
                                                         FROM TIME =   1990.0     TO    2000.0    

 
 SOLVING FOR HEAD 
 FLOW MODEL IS TRANSIENT
 FLOW MODEL CONTAINS CONSTANT-HEAD CELLS


 MAXIMUM STEPSIZE DURING WHICH ANY PARTICLE CANNOT MOVE MORE THAN ONE CELL
 =  5.918    (WHEN MIN. R.F.=1)  AT K=   4, I=   1, J=  73

 MAXIMUM STEPSIZE WHICH MEETS STABILITY CRITERION OF THE ADVECTION TERM
 (FOR PURE FINITE-DIFFERENCE OPTION, MIXELM=0) 
 =  3.514    (WHEN MIN. R.F.=1)  AT K=   2, I=   1, J=  80


 TOTAL NUMBER OF POINT SOURCES/SINKS PRESENT IN THE FLOW MODEL =    62

 MAXIMUM STEPSIZE WHICH MEETS STABILITY CRITERION OF THE SINK & SOURCE TERM
 =  335.8    (WHEN MIN. R.F.=1)  AT K=   2, I=   1, J=   1

 MAXIMUM STEPSIZE WHICH MEETS STABILITY CRITERION OF THE DISPERSION TERM
 =  20.29    (WHEN MIN. R.F.=1)  AT K=   1, I=   1, J=  31


     1 CALLS TO GCG PACKAGE FOR TRANSPORT TIME STEP   1 IN FLOW TIME STEP 200 STRESS PERIOD   1
     6 TOTAL ITERATIONS

 NO OUTPUT CONTROL FOR STRESS PERIOD    1   TIME STEP 200
 
 SOLVING FOR HEAD 
 FLOW MODEL IS TRANSIENT
 FLOW MODEL CONTAINS CONSTANT-HEAD CELLS


 MAXIMUM STEPSIZE DURING WHICH ANY PARTICLE CANNOT MOVE MORE THAN ONE CELL
 =  5.586    (WHEN MIN. R.F.=1)  AT K=   4, I=   1, J=  73

 MAXIMUM STEPSIZE WHICH MEETS STABILITY CRITERION OF THE ADVECTION TERM
 (FOR PURE FINITE-DIFFERENCE OPTION, MIXELM=0) 
 =  3.325    (WHEN MIN. R.F.=1)  AT K=   2, I=   1, J=  80


 TOTAL NUMBER OF POINT SOURCES/SINKS PRESENT IN THE FLOW MODEL =    62

 MAXIMUM STEPSIZE WHICH MEETS STABILITY CRITERION OF THE SINK & SOURCE TERM
 =  321.0    (WHEN MIN. R.F.=1)  AT K=   2, I=   1, J=   1

 MAXIMUM STEPSIZE WHICH MEETS STABILITY CRITERION OF THE DISPERSION TERM
 =  20.29    (WHEN MIN. R.F.=1)  AT K=   1, I=   1, J=  31
     1 CALLS TO GCG PACKAGE FOR TRANSPORT TIME STEP   2 IN FLOW TIME STEP 200 STRESS PERIOD   1
     6 TOTAL ITERATIONS
 
 SOLVING FOR HEAD 
 FLOW MODEL IS TRANSIENT
 FLOW MODEL CONTAINS CONSTANT-HEAD CELLS


 MAXIMUM STEPSIZE DURING WHICH ANY PARTICLE CANNOT MOVE MORE THAN ONE CELL
 =  5.340    (WHEN MIN. R.F.=1)  AT K=   4, I=   1, J=  73

 MAXIMUM STEPSIZE WHICH MEETS STABILITY CRITERION OF THE ADVECTION TERM
 (FOR PURE FINITE-DIFFERENCE OPTION, MIXELM=0) 
 =  3.314    (WHEN MIN. R.F.=1)  AT K=   2, I=   1, J=  80


 TOTAL NUMBER OF POINT SOURCES/SINKS PRESENT IN THE FLOW MODEL =    62

 MAXIMUM STEPSIZE WHICH MEETS STABILITY CRITERION OF THE SINK & SOURCE TERM
 =  311.4    (WHEN MIN. R.F.=1)  AT K=   2, I=   1, J=   1

 MAXIMUM STEPSIZE WHICH MEETS STABILITY CRITERION OF THE DISPERSION TERM
 =  20.29    (WHEN MIN. R.F.=1)  AT K=   1, I=   1, J=  31
     1 CALLS TO GCG PACKAGE FOR TRANSPORT TIME STEP   3 IN FLOW TIME STEP 200 STRESS PERIOD   1
     6 TOTAL ITERATIONS
 
 SOLVING FOR HEAD 
 FLOW MODEL IS TRANSIENT
 FLOW MODEL CONTAINS CONSTANT-HEAD CELLS


 MAXIMUM STEPSIZE DURING WHICH ANY PARTICLE CANNOT MOVE MORE THAN ONE CELL
 =  5.170    (WHEN MIN. R.F.=1)  AT K=   4, I=   1, J=  73

 MAXIMUM STEPSIZE WHICH MEETS STABILITY CRITERION OF THE ADVECTION TERM
 (FOR PURE FINITE-DIFFERENCE OPTION, MIXELM=0) 
 =  3.525    (WHEN MIN. R.F.=1)  AT K=   2, I=   1, J=  80


 TOTAL NUMBER OF POINT SOURCES/SINKS PRESENT IN THE FLOW MODEL =    62

 MAXIMUM STEPSIZE WHICH MEETS STABILITY CRITERION OF THE SINK & SOURCE TERM
 =  305.2    (WHEN MIN. R.F.=1)  AT K=   2, I=   1, J=   1

 MAXIMUM STEPSIZE WHICH MEETS STABILITY CRITERION OF THE DISPERSION TERM
 =  20.29    (WHEN MIN. R.F.=1)  AT K=   1, I=   1, J=  31
     1 CALLS TO GCG PACKAGE FOR TRANSPORT TIME STEP   4 IN FLOW TIME STEP 200 STRESS PERIOD   1
     5 TOTAL ITERATIONS
  MAXIMUM CONCENTRATION CHANGES FOR EACH ITERATION:
  MAX. CHANGE LAYER,ROW,COL MAX. CHANGE LAYER,ROW,COL MAX. CHANGE LAYER,ROW,COL MAX. CHANGE LAYER,ROW,COL MAX. CHANGE LAYER,ROW,COL
 ------------------------------------------------------------------------------------------------------------------------------------
   0.2997E-01 (  2,  1, 81)  0.1016E-02 (  2,  1, 79)  0.5289E-04 (  3,  1, 79)  0.1922E-05 (  4,  1, 79)  0.8187E-07 (  4,  1, 78)


                                          ================================================
                                                         FROM TIME =   2000.0     TO    2010.0    

 
 SOLVING FOR HEAD 
 FLOW MODEL IS TRANSIENT
 FLOW MODEL CONTAINS CONSTANT-HEAD CELLS


 MAXIMUM STEPSIZE DURING WHICH ANY PARTICLE CANNOT MOVE MORE THAN ONE CELL
 =  5.072    (WHEN MIN. R.F.=1)  AT K=   4, I=   1, J=  73

 MAXIMUM STEPSIZE WHICH MEETS STABILITY CRITERION OF THE ADVECTION TERM
 (FOR PURE FINITE-DIFFERENCE OPTION, MIXELM=0) 
 =  3.501    (WHEN MIN. R.F.=1)  AT K=   2, I=   1, J=  79


 TOTAL NUMBER OF POINT SOURCES/SINKS PRESENT IN THE FLOW MODEL =    62

 MAXIMUM STEPSIZE WHICH MEETS STABILITY CRITERION OF THE SINK & SOURCE TERM
 =  303.8    (WHEN MIN. R.F.=1)  AT K=   2, I=   1, J=   1

 MAXIMUM STEPSIZE WHICH MEETS STABILITY CRITERION OF THE DISPERSION TERM
 =  20.29    (WHEN MIN. R.F.=1)  AT K=   1, I=   1, J=  31


     1 CALLS TO GCG PACKAGE FOR TRANSPORT TIME STEP   1 IN FLOW TIME STEP 201 STRESS PERIOD   1
     6 TOTAL ITERATIONS

 NO OUTPUT CONTROL FOR STRESS PERIOD    1   TIME STEP 201
 
 SOLVING FOR HEAD 
 FLOW MODEL IS TRANSIENT
 FLOW MODEL CONTAINS CONSTANT-HEAD CELLS


 MAXIMUM STEPSIZE DURING WHICH ANY PARTICLE CANNOT MOVE MORE THAN ONE CELL
 =  5.011    (WHEN MIN. R.F.=1)  AT K=   4, I=   1, J=  73

 MAXIMUM STEPSIZE WHICH MEETS STABILITY CRITERION OF THE ADVECTION TERM
 (FOR PURE FINITE-DIFFERENCE OPTION, MIXELM=0) 
 =  3.291    (WHEN MIN. R.F.=1)  AT K=   2, I=   1, J=  79


 TOTAL NUMBER OF POINT SOURCES/SINKS PRESENT IN THE FLOW MODEL =    62

 MAXIMUM STEPSIZE WHICH MEETS STABILITY CRITERION OF THE SINK & SOURCE TERM
 =  298.1    (WHEN MIN. R.F.=1)  AT K=   2, I=   1, J=   1

 MAXIMUM STEPSIZE WHICH MEETS STABILITY CRITERION OF THE DISPERSION TERM
 =  20.29    (WHEN MIN. R.F.=1)  AT K=   1, I=   1, J=  31
     1 CALLS TO GCG PACKAGE FOR TRANSPORT TIME STEP   2 IN FLOW TIME STEP 201 STRESS PERIOD   1
     6 TOTAL ITERATIONS
 
 SOLVING FOR HEAD 
 FLOW MODEL IS TRANSIENT
 FLOW MODEL CONTAINS CONSTANT-HEAD CELLS


 MAXIMUM STEPSIZE DURING WHICH ANY PARTICLE CANNOT MOVE MORE THAN ONE CELL
 =  5.006    (WHEN MIN. R.F.=1)  AT K=   4, I=   1, J=  73

 MAXIMUM STEPSIZE WHICH MEETS STABILITY CRITERION OF THE ADVECTION TERM
 (FOR PURE FINITE-DIFFERENCE OPTION, MIXELM=0) 
 =  3.238    (WHEN MIN. R.F.=1)  AT K=   2, I=   1, J=  79


 TOTAL NUMBER OF POINT SOURCES/SINKS PRESENT IN THE FLOW MODEL =    62

 MAXIMUM STEPSIZE WHICH MEETS STABILITY CRITERION OF THE SINK & SOURCE TERM
 =  311.3    (WHEN MIN. R.F.=1)  AT K=   2, I=   1, J=   1

 MAXIMUM STEPSIZE WHICH MEETS STABILITY CRITERION OF THE DISPERSION TERM
 =  20.29    (WHEN MIN. R.F.=1)  AT K=   1, I=   1, J=  31
     1 CALLS TO GCG PACKAGE FOR TRANSPORT TIME STEP   3 IN FLOW TIME STEP 201 STRESS PERIOD   1
     6 TOTAL ITERATIONS
 
 SOLVING FOR HEAD 
 FLOW MODEL IS TRANSIENT
 FLOW MODEL CONTAINS CONSTANT-HEAD CELLS


 MAXIMUM STEPSIZE DURING WHICH ANY PARTICLE CANNOT MOVE MORE THAN ONE CELL
 =  5.053    (WHEN MIN. R.F.=1)  AT K=   4, I=   1, J=  73

 MAXIMUM STEPSIZE WHICH MEETS STABILITY CRITERION OF THE ADVECTION TERM
 (FOR PURE FINITE-DIFFERENCE OPTION, MIXELM=0) 
 =  3.314    (WHEN MIN. R.F.=1)  AT K=   2, I=   1, J=  79


 TOTAL NUMBER OF POINT SOURCES/SINKS PRESENT IN THE FLOW MODEL =    62

 MAXIMUM STEPSIZE WHICH MEETS STABILITY CRITERION OF THE SINK & SOURCE TERM
 =  282.4    (WHEN MIN. R.F.=1)  AT K=   2, I=   1, J=   1

 MAXIMUM STEPSIZE WHICH MEETS STABILITY CRITERION OF THE DISPERSION TERM
 =  20.29    (WHEN MIN. R.F.=1)  AT K=   1, I=   1, J=  31
     1 CALLS TO GCG PACKAGE FOR TRANSPORT TIME STEP   4 IN FLOW TIME STEP 201 STRESS PERIOD   1
     3 TOTAL ITERATIONS



 >>>>>>>>>>>>>>>>>>>>>>>>>>>>>>>>>>>>>>>>>>>>>>>>>>>>>>>FOR COMPONENT NO. 01<<<<<<<<<<<<<<<<<<<<<<<<<<<<<<<<<<<<<<<<<<<<<<<<<<<<<<<


                                            -------------------------------------------
                                                      TRANSPORT STEP NO.    4
                                            -------------------------------------------

 TOTAL ELAPSED TIME SINCE BEGINNING OF SIMULATION =   2007.900    D   
 .....................................................................

                     CUMULATIVE MASS BUDGETS AT END OF TRANSPORT STEP    4, TIME STEP  201, STRESS PERIOD    1
                     ------------------------------------------------------------------------------------------

                                                             IN                           OUT
                                                      ----------------             ----------------
                               CONSTANT CONCENTRATION:    1439181.                   -576221.3    
                                        CONSTANT HEAD:    0.000000                  -0.1087660E-01
                               MASS STOR (FLOW MODEL):    166.2564                   -303.2345    
                                MASS STORAGE (SOLUTE):    2070220.                   -2933043.    
                            ---------------------------------------------------------------------------
                                              [TOTAL]:    3509567.     KG            -3509567.     KG  

                                                          NET (IN - OUT):   0.5127271E-02
                                                   DISCREPANCY (PERCENT):   0.1460941E-06
 
 SOLVING FOR HEAD 
 FLOW MODEL IS TRANSIENT
 FLOW MODEL CONTAINS CONSTANT-HEAD CELLS


 MAXIMUM STEPSIZE DURING WHICH ANY PARTICLE CANNOT MOVE MORE THAN ONE CELL
 =  5.057    (WHEN MIN. R.F.=1)  AT K=   4, I=   1, J=  73

 MAXIMUM STEPSIZE WHICH MEETS STABILITY CRITERION OF THE ADVECTION TERM
 (FOR PURE FINITE-DIFFERENCE OPTION, MIXELM=0) 
 =  3.329    (WHEN MIN. R.F.=1)  AT K=   2, I=   1, J=  79


 TOTAL NUMBER OF POINT SOURCES/SINKS PRESENT IN THE FLOW MODEL =    62

 MAXIMUM STEPSIZE WHICH MEETS STABILITY CRITERION OF THE SINK & SOURCE TERM
 =  346.9    (WHEN MIN. R.F.=1)  AT K=   2, I=   1, J=   1

 MAXIMUM STEPSIZE WHICH MEETS STABILITY CRITERION OF THE DISPERSION TERM
 =  20.29    (WHEN MIN. R.F.=1)  AT K=   1, I=   1, J=  31
     1 CALLS TO GCG PACKAGE FOR TRANSPORT TIME STEP   5 IN FLOW TIME STEP 201 STRESS PERIOD   1
     5 TOTAL ITERATIONS
  MAXIMUM CONCENTRATION CHANGES FOR EACH ITERATION:
  MAX. CHANGE LAYER,ROW,COL MAX. CHANGE LAYER,ROW,COL MAX. CHANGE LAYER,ROW,COL MAX. CHANGE LAYER,ROW,COL MAX. CHANGE LAYER,ROW,COL
 ------------------------------------------------------------------------------------------------------------------------------------
   0.3047E-01 (  2,  1, 80)  0.9312E-03 (  2,  1, 78)  0.5715E-04 (  3,  1, 78)  0.2165E-05 (  4,  1, 78)  0.8475E-07 (  4,  1, 77)


                                          ================================================
                                                         FROM TIME =   2010.0     TO    2020.0    

 
 SOLVING FOR HEAD 
 FLOW MODEL IS TRANSIENT
 FLOW MODEL CONTAINS CONSTANT-HEAD CELLS


 MAXIMUM STEPSIZE DURING WHICH ANY PARTICLE CANNOT MOVE MORE THAN ONE CELL
 =  5.131    (WHEN MIN. R.F.=1)  AT K=   4, I=   1, J=  73

 MAXIMUM STEPSIZE WHICH MEETS STABILITY CRITERION OF THE ADVECTION TERM
 (FOR PURE FINITE-DIFFERENCE OPTION, MIXELM=0) 
 =  3.566    (WHEN MIN. R.F.=1)  AT K=   2, I=   1, J=  79


 TOTAL NUMBER OF POINT SOURCES/SINKS PRESENT IN THE FLOW MODEL =    62

 MAXIMUM STEPSIZE WHICH MEETS STABILITY CRITERION OF THE SINK & SOURCE TERM
 =  322.8    (WHEN MIN. R.F.=1)  AT K=   2, I=   1, J=   1

 MAXIMUM STEPSIZE WHICH MEETS STABILITY CRITERION OF THE DISPERSION TERM
 =  20.29    (WHEN MIN. R.F.=1)  AT K=   1, I=   1, J=  31


     1 CALLS TO GCG PACKAGE FOR TRANSPORT TIME STEP   1 IN FLOW TIME STEP 202 STRESS PERIOD   1
     6 TOTAL ITERATIONS

 NO OUTPUT CONTROL FOR STRESS PERIOD    1   TIME STEP 202
 
 SOLVING FOR HEAD 
 FLOW MODEL IS TRANSIENT
 FLOW MODEL CONTAINS CONSTANT-HEAD CELLS


 MAXIMUM STEPSIZE DURING WHICH ANY PARTICLE CANNOT MOVE MORE THAN ONE CELL
 =  5.195    (WHEN MIN. R.F.=1)  AT K=   5, I=   1, J=  73

 MAXIMUM STEPSIZE WHICH MEETS STABILITY CRITERION OF THE ADVECTION TERM
 (FOR PURE FINITE-DIFFERENCE OPTION, MIXELM=0) 
 =  3.557    (WHEN MIN. R.F.=1)  AT K=   2, I=   1, J=  78


 TOTAL NUMBER OF POINT SOURCES/SINKS PRESENT IN THE FLOW MODEL =    62

 MAXIMUM STEPSIZE WHICH MEETS STABILITY CRITERION OF THE SINK & SOURCE TERM
 =  306.9    (WHEN MIN. R.F.=1)  AT K=   2, I=   1, J=   1

 MAXIMUM STEPSIZE WHICH MEETS STABILITY CRITERION OF THE DISPERSION TERM
 =  20.29    (WHEN MIN. R.F.=1)  AT K=   1, I=   1, J=  31
     1 CALLS TO GCG PACKAGE FOR TRANSPORT TIME STEP   2 IN FLOW TIME STEP 202 STRESS PERIOD   1
     6 TOTAL ITERATIONS
 
 SOLVING FOR HEAD 
 FLOW MODEL IS TRANSIENT
 FLOW MODEL CONTAINS CONSTANT-HEAD CELLS


 MAXIMUM STEPSIZE DURING WHICH ANY PARTICLE CANNOT MOVE MORE THAN ONE CELL
 =  5.287    (WHEN MIN. R.F.=1)  AT K=   5, I=   1, J=  73

 MAXIMUM STEPSIZE WHICH MEETS STABILITY CRITERION OF THE ADVECTION TERM
 (FOR PURE FINITE-DIFFERENCE OPTION, MIXELM=0) 
 =  3.381    (WHEN MIN. R.F.=1)  AT K=   2, I=   1, J=  78


 TOTAL NUMBER OF POINT SOURCES/SINKS PRESENT IN THE FLOW MODEL =    62

 MAXIMUM STEPSIZE WHICH MEETS STABILITY CRITERION OF THE SINK & SOURCE TERM
 =  305.5    (WHEN MIN. R.F.=1)  AT K=   2, I=   1, J=   1

 MAXIMUM STEPSIZE WHICH MEETS STABILITY CRITERION OF THE DISPERSION TERM
 =  20.29    (WHEN MIN. R.F.=1)  AT K=   1, I=   1, J=  31
     1 CALLS TO GCG PACKAGE FOR TRANSPORT TIME STEP   3 IN FLOW TIME STEP 202 STRESS PERIOD   1
     6 TOTAL ITERATIONS
 
 SOLVING FOR HEAD 
 FLOW MODEL IS TRANSIENT
 FLOW MODEL CONTAINS CONSTANT-HEAD CELLS


 MAXIMUM STEPSIZE DURING WHICH ANY PARTICLE CANNOT MOVE MORE THAN ONE CELL
 =  5.414    (WHEN MIN. R.F.=1)  AT K=   5, I=   1, J=  73

 MAXIMUM STEPSIZE WHICH MEETS STABILITY CRITERION OF THE ADVECTION TERM
 (FOR PURE FINITE-DIFFERENCE OPTION, MIXELM=0) 
 =  3.350    (WHEN MIN. R.F.=1)  AT K=   2, I=   1, J=  78


 TOTAL NUMBER OF POINT SOURCES/SINKS PRESENT IN THE FLOW MODEL =    62

 MAXIMUM STEPSIZE WHICH MEETS STABILITY CRITERION OF THE SINK & SOURCE TERM
 =  311.4    (WHEN MIN. R.F.=1)  AT K=   2, I=   1, J=   1

 MAXIMUM STEPSIZE WHICH MEETS STABILITY CRITERION OF THE DISPERSION TERM
 =  20.29    (WHEN MIN. R.F.=1)  AT K=   1, I=   1, J=  31
     1 CALLS TO GCG PACKAGE FOR TRANSPORT TIME STEP   4 IN FLOW TIME STEP 202 STRESS PERIOD   1
     6 TOTAL ITERATIONS
  MAXIMUM CONCENTRATION CHANGES FOR EACH ITERATION:
  MAX. CHANGE LAYER,ROW,COL MAX. CHANGE LAYER,ROW,COL MAX. CHANGE LAYER,ROW,COL MAX. CHANGE LAYER,ROW,COL MAX. CHANGE LAYER,ROW,COL
 ------------------------------------------------------------------------------------------------------------------------------------
   0.3070E-01 (  2,  1, 79)  0.9955E-03 (  2,  1, 79)  0.4166E-04 (  2,  1, 80)  0.2932E-05 (  3,  1, 75)  0.1044E-06 (  4,  1, 75)
   0.3851E-08 (  4,  1, 44)


                                          ================================================
                                                         FROM TIME =   2020.0     TO    2030.0    

 
 SOLVING FOR HEAD 
 FLOW MODEL IS TRANSIENT
 FLOW MODEL CONTAINS CONSTANT-HEAD CELLS


 MAXIMUM STEPSIZE DURING WHICH ANY PARTICLE CANNOT MOVE MORE THAN ONE CELL
 =  5.498    (WHEN MIN. R.F.=1)  AT K=   6, I=   1, J=  73

 MAXIMUM STEPSIZE WHICH MEETS STABILITY CRITERION OF THE ADVECTION TERM
 (FOR PURE FINITE-DIFFERENCE OPTION, MIXELM=0) 
 =  3.427    (WHEN MIN. R.F.=1)  AT K=   2, I=   1, J=  78


 TOTAL NUMBER OF POINT SOURCES/SINKS PRESENT IN THE FLOW MODEL =    62

 MAXIMUM STEPSIZE WHICH MEETS STABILITY CRITERION OF THE SINK & SOURCE TERM
 =  328.4    (WHEN MIN. R.F.=1)  AT K=   2, I=   1, J=   1

 MAXIMUM STEPSIZE WHICH MEETS STABILITY CRITERION OF THE DISPERSION TERM
 =  20.29    (WHEN MIN. R.F.=1)  AT K=   1, I=   1, J=  31


     1 CALLS TO GCG PACKAGE FOR TRANSPORT TIME STEP   1 IN FLOW TIME STEP 203 STRESS PERIOD   1
     6 TOTAL ITERATIONS

 NO OUTPUT CONTROL FOR STRESS PERIOD    1   TIME STEP 203
 
 SOLVING FOR HEAD 
 FLOW MODEL IS TRANSIENT
 FLOW MODEL CONTAINS CONSTANT-HEAD CELLS


 MAXIMUM STEPSIZE DURING WHICH ANY PARTICLE CANNOT MOVE MORE THAN ONE CELL
 =  5.603    (WHEN MIN. R.F.=1)  AT K=   6, I=   1, J=  73

 MAXIMUM STEPSIZE WHICH MEETS STABILITY CRITERION OF THE ADVECTION TERM
 (FOR PURE FINITE-DIFFERENCE OPTION, MIXELM=0) 
 =  3.648    (WHEN MIN. R.F.=1)  AT K=   2, I=   1, J=  78


 TOTAL NUMBER OF POINT SOURCES/SINKS PRESENT IN THE FLOW MODEL =    62

 MAXIMUM STEPSIZE WHICH MEETS STABILITY CRITERION OF THE SINK & SOURCE TERM
 =  314.0    (WHEN MIN. R.F.=1)  AT K=   2, I=   1, J=   1

 MAXIMUM STEPSIZE WHICH MEETS STABILITY CRITERION OF THE DISPERSION TERM
 =  20.29    (WHEN MIN. R.F.=1)  AT K=   1, I=   1, J=  31
     1 CALLS TO GCG PACKAGE FOR TRANSPORT TIME STEP   2 IN FLOW TIME STEP 203 STRESS PERIOD   1
     6 TOTAL ITERATIONS
 
 SOLVING FOR HEAD 
 FLOW MODEL IS TRANSIENT
 FLOW MODEL CONTAINS CONSTANT-HEAD CELLS


 MAXIMUM STEPSIZE DURING WHICH ANY PARTICLE CANNOT MOVE MORE THAN ONE CELL
 =  5.733    (WHEN MIN. R.F.=1)  AT K=   7, I=   1, J=  73

 MAXIMUM STEPSIZE WHICH MEETS STABILITY CRITERION OF THE ADVECTION TERM
 (FOR PURE FINITE-DIFFERENCE OPTION, MIXELM=0) 
 =  3.516    (WHEN MIN. R.F.=1)  AT K=   2, I=   1, J=  41


 TOTAL NUMBER OF POINT SOURCES/SINKS PRESENT IN THE FLOW MODEL =    62

 MAXIMUM STEPSIZE WHICH MEETS STABILITY CRITERION OF THE SINK & SOURCE TERM
 =  301.8    (WHEN MIN. R.F.=1)  AT K=   2, I=   1, J=   1

 MAXIMUM STEPSIZE WHICH MEETS STABILITY CRITERION OF THE DISPERSION TERM
 =  20.29    (WHEN MIN. R.F.=1)  AT K=   1, I=   1, J=  31
     1 CALLS TO GCG PACKAGE FOR TRANSPORT TIME STEP   3 IN FLOW TIME STEP 203 STRESS PERIOD   1
     6 TOTAL ITERATIONS
 
 SOLVING FOR HEAD 
 FLOW MODEL IS TRANSIENT
 FLOW MODEL CONTAINS CONSTANT-HEAD CELLS


 MAXIMUM STEPSIZE DURING WHICH ANY PARTICLE CANNOT MOVE MORE THAN ONE CELL
 =  5.835    (WHEN MIN. R.F.=1)  AT K=   7, I=   1, J=  73

 MAXIMUM STEPSIZE WHICH MEETS STABILITY CRITERION OF THE ADVECTION TERM
 (FOR PURE FINITE-DIFFERENCE OPTION, MIXELM=0) 
 =  3.443    (WHEN MIN. R.F.=1)  AT K=   2, I=   1, J=  41


 TOTAL NUMBER OF POINT SOURCES/SINKS PRESENT IN THE FLOW MODEL =    62

 MAXIMUM STEPSIZE WHICH MEETS STABILITY CRITERION OF THE SINK & SOURCE TERM
 =  295.7    (WHEN MIN. R.F.=1)  AT K=   2, I=   1, J=   1

 MAXIMUM STEPSIZE WHICH MEETS STABILITY CRITERION OF THE DISPERSION TERM
 =  20.29    (WHEN MIN. R.F.=1)  AT K=   1, I=   1, J=  31
     1 CALLS TO GCG PACKAGE FOR TRANSPORT TIME STEP   4 IN FLOW TIME STEP 203 STRESS PERIOD   1
     5 TOTAL ITERATIONS
  MAXIMUM CONCENTRATION CHANGES FOR EACH ITERATION:
  MAX. CHANGE LAYER,ROW,COL MAX. CHANGE LAYER,ROW,COL MAX. CHANGE LAYER,ROW,COL MAX. CHANGE LAYER,ROW,COL MAX. CHANGE LAYER,ROW,COL
 ------------------------------------------------------------------------------------------------------------------------------------
   0.2556E-01 (  2,  1, 40)  0.9366E-03 (  2,  1, 77)  0.4313E-04 (  3,  1, 42)  0.1755E-05 (  4,  1, 42)  0.8318E-07 (  3,  1, 45)


                                          ================================================
                                                         FROM TIME =   2030.0     TO    2040.0    

 
 SOLVING FOR HEAD 
 FLOW MODEL IS TRANSIENT
 FLOW MODEL CONTAINS CONSTANT-HEAD CELLS


 MAXIMUM STEPSIZE DURING WHICH ANY PARTICLE CANNOT MOVE MORE THAN ONE CELL
 =  5.839    (WHEN MIN. R.F.=1)  AT K=   4, I=   1, J=  60

 MAXIMUM STEPSIZE WHICH MEETS STABILITY CRITERION OF THE ADVECTION TERM
 (FOR PURE FINITE-DIFFERENCE OPTION, MIXELM=0) 
 =  3.439    (WHEN MIN. R.F.=1)  AT K=   2, I=   1, J=  77


 TOTAL NUMBER OF POINT SOURCES/SINKS PRESENT IN THE FLOW MODEL =    62

 MAXIMUM STEPSIZE WHICH MEETS STABILITY CRITERION OF THE SINK & SOURCE TERM
 =  316.5    (WHEN MIN. R.F.=1)  AT K=   2, I=   1, J=   1

 MAXIMUM STEPSIZE WHICH MEETS STABILITY CRITERION OF THE DISPERSION TERM
 =  20.29    (WHEN MIN. R.F.=1)  AT K=   1, I=   1, J=  31


     1 CALLS TO GCG PACKAGE FOR TRANSPORT TIME STEP   1 IN FLOW TIME STEP 204 STRESS PERIOD   1
     6 TOTAL ITERATIONS

 NO OUTPUT CONTROL FOR STRESS PERIOD    1   TIME STEP 204
 
 SOLVING FOR HEAD 
 FLOW MODEL IS TRANSIENT
 FLOW MODEL CONTAINS CONSTANT-HEAD CELLS


 MAXIMUM STEPSIZE DURING WHICH ANY PARTICLE CANNOT MOVE MORE THAN ONE CELL
 =  5.834    (WHEN MIN. R.F.=1)  AT K=   4, I=   1, J=  60

 MAXIMUM STEPSIZE WHICH MEETS STABILITY CRITERION OF THE ADVECTION TERM
 (FOR PURE FINITE-DIFFERENCE OPTION, MIXELM=0) 
 =  3.463    (WHEN MIN. R.F.=1)  AT K=   2, I=   1, J=  77


 TOTAL NUMBER OF POINT SOURCES/SINKS PRESENT IN THE FLOW MODEL =    62

 MAXIMUM STEPSIZE WHICH MEETS STABILITY CRITERION OF THE SINK & SOURCE TERM
 =  312.8    (WHEN MIN. R.F.=1)  AT K=   2, I=   1, J=   1

 MAXIMUM STEPSIZE WHICH MEETS STABILITY CRITERION OF THE DISPERSION TERM
 =  20.29    (WHEN MIN. R.F.=1)  AT K=   1, I=   1, J=  31
     1 CALLS TO GCG PACKAGE FOR TRANSPORT TIME STEP   2 IN FLOW TIME STEP 204 STRESS PERIOD   1
     6 TOTAL ITERATIONS
 
 SOLVING FOR HEAD 
 FLOW MODEL IS TRANSIENT
 FLOW MODEL CONTAINS CONSTANT-HEAD CELLS


 MAXIMUM STEPSIZE DURING WHICH ANY PARTICLE CANNOT MOVE MORE THAN ONE CELL
 =  5.830    (WHEN MIN. R.F.=1)  AT K=   4, I=   1, J=  60

 MAXIMUM STEPSIZE WHICH MEETS STABILITY CRITERION OF THE ADVECTION TERM
 (FOR PURE FINITE-DIFFERENCE OPTION, MIXELM=0) 
 =  3.544    (WHEN MIN. R.F.=1)  AT K=   2, I=   1, J=  42


 TOTAL NUMBER OF POINT SOURCES/SINKS PRESENT IN THE FLOW MODEL =    62

 MAXIMUM STEPSIZE WHICH MEETS STABILITY CRITERION OF THE SINK & SOURCE TERM
 =  316.7    (WHEN MIN. R.F.=1)  AT K=   2, I=   1, J=   1

 MAXIMUM STEPSIZE WHICH MEETS STABILITY CRITERION OF THE DISPERSION TERM
 =  20.29    (WHEN MIN. R.F.=1)  AT K=   1, I=   1, J=  31
     1 CALLS TO GCG PACKAGE FOR TRANSPORT TIME STEP   3 IN FLOW TIME STEP 204 STRESS PERIOD   1
     6 TOTAL ITERATIONS
 
 SOLVING FOR HEAD 
 FLOW MODEL IS TRANSIENT
 FLOW MODEL CONTAINS CONSTANT-HEAD CELLS


 MAXIMUM STEPSIZE DURING WHICH ANY PARTICLE CANNOT MOVE MORE THAN ONE CELL
 =  5.672    (WHEN MIN. R.F.=1)  AT K=   4, I=   1, J=  49

 MAXIMUM STEPSIZE WHICH MEETS STABILITY CRITERION OF THE ADVECTION TERM
 (FOR PURE FINITE-DIFFERENCE OPTION, MIXELM=0) 
 =  3.415    (WHEN MIN. R.F.=1)  AT K=   2, I=   1, J=  42


 TOTAL NUMBER OF POINT SOURCES/SINKS PRESENT IN THE FLOW MODEL =    62

 MAXIMUM STEPSIZE WHICH MEETS STABILITY CRITERION OF THE SINK & SOURCE TERM
 =  311.5    (WHEN MIN. R.F.=1)  AT K=   2, I=   1, J=   1

 MAXIMUM STEPSIZE WHICH MEETS STABILITY CRITERION OF THE DISPERSION TERM
 =  20.29    (WHEN MIN. R.F.=1)  AT K=   1, I=   1, J=  31
     1 CALLS TO GCG PACKAGE FOR TRANSPORT TIME STEP   4 IN FLOW TIME STEP 204 STRESS PERIOD   1
     5 TOTAL ITERATIONS
  MAXIMUM CONCENTRATION CHANGES FOR EACH ITERATION:
  MAX. CHANGE LAYER,ROW,COL MAX. CHANGE LAYER,ROW,COL MAX. CHANGE LAYER,ROW,COL MAX. CHANGE LAYER,ROW,COL MAX. CHANGE LAYER,ROW,COL
 ------------------------------------------------------------------------------------------------------------------------------------
   0.2852E-01 (  2,  1, 78)  0.1188E-02 (  2,  1, 76)  0.5279E-04 (  3,  1, 76)  0.2083E-05 (  4,  1, 43)  0.8887E-07 (  3,  1, 74)


                                          ================================================
                                                         FROM TIME =   2040.0     TO    2050.0    

 
 SOLVING FOR HEAD 
 FLOW MODEL IS TRANSIENT
 FLOW MODEL CONTAINS CONSTANT-HEAD CELLS


 MAXIMUM STEPSIZE DURING WHICH ANY PARTICLE CANNOT MOVE MORE THAN ONE CELL
 =  5.543    (WHEN MIN. R.F.=1)  AT K=   4, I=   1, J=  49

 MAXIMUM STEPSIZE WHICH MEETS STABILITY CRITERION OF THE ADVECTION TERM
 (FOR PURE FINITE-DIFFERENCE OPTION, MIXELM=0) 
 =  3.417    (WHEN MIN. R.F.=1)  AT K=   2, I=   1, J=  42


 TOTAL NUMBER OF POINT SOURCES/SINKS PRESENT IN THE FLOW MODEL =    62

 MAXIMUM STEPSIZE WHICH MEETS STABILITY CRITERION OF THE SINK & SOURCE TERM
 =  328.7    (WHEN MIN. R.F.=1)  AT K=   2, I=   1, J=   1

 MAXIMUM STEPSIZE WHICH MEETS STABILITY CRITERION OF THE DISPERSION TERM
 =  20.29    (WHEN MIN. R.F.=1)  AT K=   1, I=   1, J=  31


     1 CALLS TO GCG PACKAGE FOR TRANSPORT TIME STEP   1 IN FLOW TIME STEP 205 STRESS PERIOD   1
     6 TOTAL ITERATIONS

 NO OUTPUT CONTROL FOR STRESS PERIOD    1   TIME STEP 205
 
 SOLVING FOR HEAD 
 FLOW MODEL IS TRANSIENT
 FLOW MODEL CONTAINS CONSTANT-HEAD CELLS


 MAXIMUM STEPSIZE DURING WHICH ANY PARTICLE CANNOT MOVE MORE THAN ONE CELL
 =  5.428    (WHEN MIN. R.F.=1)  AT K=   4, I=   1, J=  49

 MAXIMUM STEPSIZE WHICH MEETS STABILITY CRITERION OF THE ADVECTION TERM
 (FOR PURE FINITE-DIFFERENCE OPTION, MIXELM=0) 
 =  3.516    (WHEN MIN. R.F.=1)  AT K=   2, I=   1, J=  42


 TOTAL NUMBER OF POINT SOURCES/SINKS PRESENT IN THE FLOW MODEL =    62

 MAXIMUM STEPSIZE WHICH MEETS STABILITY CRITERION OF THE SINK & SOURCE TERM
 =  338.6    (WHEN MIN. R.F.=1)  AT K=   2, I=   1, J=   1

 MAXIMUM STEPSIZE WHICH MEETS STABILITY CRITERION OF THE DISPERSION TERM
 =  20.29    (WHEN MIN. R.F.=1)  AT K=   1, I=   1, J=  31
     1 CALLS TO GCG PACKAGE FOR TRANSPORT TIME STEP   2 IN FLOW TIME STEP 205 STRESS PERIOD   1
     6 TOTAL ITERATIONS
 
 SOLVING FOR HEAD 
 FLOW MODEL IS TRANSIENT
 FLOW MODEL CONTAINS CONSTANT-HEAD CELLS


 MAXIMUM STEPSIZE DURING WHICH ANY PARTICLE CANNOT MOVE MORE THAN ONE CELL
 =  5.345    (WHEN MIN. R.F.=1)  AT K=   4, I=   1, J=  49

 MAXIMUM STEPSIZE WHICH MEETS STABILITY CRITERION OF THE ADVECTION TERM
 (FOR PURE FINITE-DIFFERENCE OPTION, MIXELM=0) 
 =  3.647    (WHEN MIN. R.F.=1)  AT K=   2, I=   1, J=  76


 TOTAL NUMBER OF POINT SOURCES/SINKS PRESENT IN THE FLOW MODEL =    62

 MAXIMUM STEPSIZE WHICH MEETS STABILITY CRITERION OF THE SINK & SOURCE TERM
 =  354.2    (WHEN MIN. R.F.=1)  AT K=   2, I=   1, J=   1

 MAXIMUM STEPSIZE WHICH MEETS STABILITY CRITERION OF THE DISPERSION TERM
 =  20.29    (WHEN MIN. R.F.=1)  AT K=   1, I=   1, J=  31
     1 CALLS TO GCG PACKAGE FOR TRANSPORT TIME STEP   3 IN FLOW TIME STEP 205 STRESS PERIOD   1
     6 TOTAL ITERATIONS
 
 SOLVING FOR HEAD 
 FLOW MODEL IS TRANSIENT
 FLOW MODEL CONTAINS CONSTANT-HEAD CELLS


 MAXIMUM STEPSIZE DURING WHICH ANY PARTICLE CANNOT MOVE MORE THAN ONE CELL
 =  5.287    (WHEN MIN. R.F.=1)  AT K=   4, I=   1, J=  49

 MAXIMUM STEPSIZE WHICH MEETS STABILITY CRITERION OF THE ADVECTION TERM
 (FOR PURE FINITE-DIFFERENCE OPTION, MIXELM=0) 
 =  3.596    (WHEN MIN. R.F.=1)  AT K=   2, I=   1, J=  43


 TOTAL NUMBER OF POINT SOURCES/SINKS PRESENT IN THE FLOW MODEL =    62

 MAXIMUM STEPSIZE WHICH MEETS STABILITY CRITERION OF THE SINK & SOURCE TERM
 =  357.6    (WHEN MIN. R.F.=1)  AT K=   2, I=   1, J=   1

 MAXIMUM STEPSIZE WHICH MEETS STABILITY CRITERION OF THE DISPERSION TERM
 =  20.29    (WHEN MIN. R.F.=1)  AT K=   1, I=   1, J=  31
     1 CALLS TO GCG PACKAGE FOR TRANSPORT TIME STEP   4 IN FLOW TIME STEP 205 STRESS PERIOD   1
     6 TOTAL ITERATIONS
  MAXIMUM CONCENTRATION CHANGES FOR EACH ITERATION:
  MAX. CHANGE LAYER,ROW,COL MAX. CHANGE LAYER,ROW,COL MAX. CHANGE LAYER,ROW,COL MAX. CHANGE LAYER,ROW,COL MAX. CHANGE LAYER,ROW,COL
 ------------------------------------------------------------------------------------------------------------------------------------
   0.3081E-01 (  2,  1, 77)  0.9371E-03 (  2,  1, 74)  0.4323E-04 (  2,  1, 78)  0.2464E-05 (  3,  1, 46)  0.1058E-06 (  4,  1, 46)
   0.4601E-08 (  4,  1, 79)


                                          ================================================
                                                         FROM TIME =   2050.0     TO    2060.0    

 
 SOLVING FOR HEAD 
 FLOW MODEL IS TRANSIENT
 FLOW MODEL CONTAINS CONSTANT-HEAD CELLS


 MAXIMUM STEPSIZE DURING WHICH ANY PARTICLE CANNOT MOVE MORE THAN ONE CELL
 =  5.261    (WHEN MIN. R.F.=1)  AT K=   4, I=   1, J=  49

 MAXIMUM STEPSIZE WHICH MEETS STABILITY CRITERION OF THE ADVECTION TERM
 (FOR PURE FINITE-DIFFERENCE OPTION, MIXELM=0) 
 =  3.488    (WHEN MIN. R.F.=1)  AT K=   2, I=   1, J=  43


 TOTAL NUMBER OF POINT SOURCES/SINKS PRESENT IN THE FLOW MODEL =    62

 MAXIMUM STEPSIZE WHICH MEETS STABILITY CRITERION OF THE SINK & SOURCE TERM
 =  363.9    (WHEN MIN. R.F.=1)  AT K=   2, I=   1, J=   1

 MAXIMUM STEPSIZE WHICH MEETS STABILITY CRITERION OF THE DISPERSION TERM
 =  20.29    (WHEN MIN. R.F.=1)  AT K=   1, I=   1, J=  31


     1 CALLS TO GCG PACKAGE FOR TRANSPORT TIME STEP   1 IN FLOW TIME STEP 206 STRESS PERIOD   1
     6 TOTAL ITERATIONS

 NO OUTPUT CONTROL FOR STRESS PERIOD    1   TIME STEP 206
 
 SOLVING FOR HEAD 
 FLOW MODEL IS TRANSIENT
 FLOW MODEL CONTAINS CONSTANT-HEAD CELLS


 MAXIMUM STEPSIZE DURING WHICH ANY PARTICLE CANNOT MOVE MORE THAN ONE CELL
 =  5.253    (WHEN MIN. R.F.=1)  AT K=   4, I=   1, J=  49

 MAXIMUM STEPSIZE WHICH MEETS STABILITY CRITERION OF THE ADVECTION TERM
 (FOR PURE FINITE-DIFFERENCE OPTION, MIXELM=0) 
 =  3.486    (WHEN MIN. R.F.=1)  AT K=   2, I=   1, J=  43


 TOTAL NUMBER OF POINT SOURCES/SINKS PRESENT IN THE FLOW MODEL =    62

 MAXIMUM STEPSIZE WHICH MEETS STABILITY CRITERION OF THE SINK & SOURCE TERM
 =  349.4    (WHEN MIN. R.F.=1)  AT K=   2, I=   1, J=   1

 MAXIMUM STEPSIZE WHICH MEETS STABILITY CRITERION OF THE DISPERSION TERM
 =  20.29    (WHEN MIN. R.F.=1)  AT K=   1, I=   1, J=  31
     1 CALLS TO GCG PACKAGE FOR TRANSPORT TIME STEP   2 IN FLOW TIME STEP 206 STRESS PERIOD   1
     6 TOTAL ITERATIONS
 
 SOLVING FOR HEAD 
 FLOW MODEL IS TRANSIENT
 FLOW MODEL CONTAINS CONSTANT-HEAD CELLS


 MAXIMUM STEPSIZE DURING WHICH ANY PARTICLE CANNOT MOVE MORE THAN ONE CELL
 =  5.270    (WHEN MIN. R.F.=1)  AT K=   4, I=   1, J=  49

 MAXIMUM STEPSIZE WHICH MEETS STABILITY CRITERION OF THE ADVECTION TERM
 (FOR PURE FINITE-DIFFERENCE OPTION, MIXELM=0) 
 =  3.600    (WHEN MIN. R.F.=1)  AT K=   2, I=   1, J=  43


 TOTAL NUMBER OF POINT SOURCES/SINKS PRESENT IN THE FLOW MODEL =    62

 MAXIMUM STEPSIZE WHICH MEETS STABILITY CRITERION OF THE SINK & SOURCE TERM
 =  365.8    (WHEN MIN. R.F.=1)  AT K=   2, I=   1, J=   1

 MAXIMUM STEPSIZE WHICH MEETS STABILITY CRITERION OF THE DISPERSION TERM
 =  20.29    (WHEN MIN. R.F.=1)  AT K=   1, I=   1, J=  31
     1 CALLS TO GCG PACKAGE FOR TRANSPORT TIME STEP   3 IN FLOW TIME STEP 206 STRESS PERIOD   1
     6 TOTAL ITERATIONS
 
 SOLVING FOR HEAD 
 FLOW MODEL IS TRANSIENT
 FLOW MODEL CONTAINS CONSTANT-HEAD CELLS


 MAXIMUM STEPSIZE DURING WHICH ANY PARTICLE CANNOT MOVE MORE THAN ONE CELL
 =  5.310    (WHEN MIN. R.F.=1)  AT K=   4, I=   1, J=  49

 MAXIMUM STEPSIZE WHICH MEETS STABILITY CRITERION OF THE ADVECTION TERM
 (FOR PURE FINITE-DIFFERENCE OPTION, MIXELM=0) 
 =  3.899    (WHEN MIN. R.F.=1)  AT K=   2, I=   1, J=  43


 TOTAL NUMBER OF POINT SOURCES/SINKS PRESENT IN THE FLOW MODEL =    62

 MAXIMUM STEPSIZE WHICH MEETS STABILITY CRITERION OF THE SINK & SOURCE TERM
 =  376.0    (WHEN MIN. R.F.=1)  AT K=   2, I=   1, J=   1

 MAXIMUM STEPSIZE WHICH MEETS STABILITY CRITERION OF THE DISPERSION TERM
 =  20.29    (WHEN MIN. R.F.=1)  AT K=   1, I=   1, J=  31
     1 CALLS TO GCG PACKAGE FOR TRANSPORT TIME STEP   4 IN FLOW TIME STEP 206 STRESS PERIOD   1
     5 TOTAL ITERATIONS
  MAXIMUM CONCENTRATION CHANGES FOR EACH ITERATION:
  MAX. CHANGE LAYER,ROW,COL MAX. CHANGE LAYER,ROW,COL MAX. CHANGE LAYER,ROW,COL MAX. CHANGE LAYER,ROW,COL MAX. CHANGE LAYER,ROW,COL
 ------------------------------------------------------------------------------------------------------------------------------------
   0.2539E-01 (  2,  1, 42)  0.8694E-03 (  2,  1, 83)  0.3253E-04 (  2,  1, 84)  0.1427E-05 (  3,  1, 84)  0.6857E-07 (  4,  1, 81)


                                          ================================================
                                                         FROM TIME =   2060.0     TO    2070.0    

 
 SOLVING FOR HEAD 
 FLOW MODEL IS TRANSIENT
 FLOW MODEL CONTAINS CONSTANT-HEAD CELLS


 MAXIMUM STEPSIZE DURING WHICH ANY PARTICLE CANNOT MOVE MORE THAN ONE CELL
 =  5.357    (WHEN MIN. R.F.=1)  AT K=   4, I=   1, J=  49

 MAXIMUM STEPSIZE WHICH MEETS STABILITY CRITERION OF THE ADVECTION TERM
 (FOR PURE FINITE-DIFFERENCE OPTION, MIXELM=0) 
 =  3.731    (WHEN MIN. R.F.=1)  AT K=   2, I=   1, J=  44


 TOTAL NUMBER OF POINT SOURCES/SINKS PRESENT IN THE FLOW MODEL =    62

 MAXIMUM STEPSIZE WHICH MEETS STABILITY CRITERION OF THE SINK & SOURCE TERM
 =  396.3    (WHEN MIN. R.F.=1)  AT K=   2, I=   1, J=   1

 MAXIMUM STEPSIZE WHICH MEETS STABILITY CRITERION OF THE DISPERSION TERM
 =  20.29    (WHEN MIN. R.F.=1)  AT K=   1, I=   1, J=  31


     1 CALLS TO GCG PACKAGE FOR TRANSPORT TIME STEP   1 IN FLOW TIME STEP 207 STRESS PERIOD   1
     6 TOTAL ITERATIONS

 NO OUTPUT CONTROL FOR STRESS PERIOD    1   TIME STEP 207
 
 SOLVING FOR HEAD 
 FLOW MODEL IS TRANSIENT
 FLOW MODEL CONTAINS CONSTANT-HEAD CELLS


 MAXIMUM STEPSIZE DURING WHICH ANY PARTICLE CANNOT MOVE MORE THAN ONE CELL
 =  5.435    (WHEN MIN. R.F.=1)  AT K=   5, I=   1, J=  49

 MAXIMUM STEPSIZE WHICH MEETS STABILITY CRITERION OF THE ADVECTION TERM
 (FOR PURE FINITE-DIFFERENCE OPTION, MIXELM=0) 
 =  3.566    (WHEN MIN. R.F.=1)  AT K=   2, I=   1, J=  44


 TOTAL NUMBER OF POINT SOURCES/SINKS PRESENT IN THE FLOW MODEL =    62

 MAXIMUM STEPSIZE WHICH MEETS STABILITY CRITERION OF THE SINK & SOURCE TERM
 =  382.7    (WHEN MIN. R.F.=1)  AT K=   2, I=   1, J=   1

 MAXIMUM STEPSIZE WHICH MEETS STABILITY CRITERION OF THE DISPERSION TERM
 =  20.29    (WHEN MIN. R.F.=1)  AT K=   1, I=   1, J=  31
     1 CALLS TO GCG PACKAGE FOR TRANSPORT TIME STEP   2 IN FLOW TIME STEP 207 STRESS PERIOD   1
     6 TOTAL ITERATIONS
 
 SOLVING FOR HEAD 
 FLOW MODEL IS TRANSIENT
 FLOW MODEL CONTAINS CONSTANT-HEAD CELLS


 MAXIMUM STEPSIZE DURING WHICH ANY PARTICLE CANNOT MOVE MORE THAN ONE CELL
 =  5.496    (WHEN MIN. R.F.=1)  AT K=   5, I=   1, J=  49

 MAXIMUM STEPSIZE WHICH MEETS STABILITY CRITERION OF THE ADVECTION TERM
 (FOR PURE FINITE-DIFFERENCE OPTION, MIXELM=0) 
 =  3.571    (WHEN MIN. R.F.=1)  AT K=   2, I=   1, J=  44


 TOTAL NUMBER OF POINT SOURCES/SINKS PRESENT IN THE FLOW MODEL =    62

 MAXIMUM STEPSIZE WHICH MEETS STABILITY CRITERION OF THE SINK & SOURCE TERM
 =  375.5    (WHEN MIN. R.F.=1)  AT K=   2, I=   1, J=   1

 MAXIMUM STEPSIZE WHICH MEETS STABILITY CRITERION OF THE DISPERSION TERM
 =  20.29    (WHEN MIN. R.F.=1)  AT K=   1, I=   1, J=  31
     1 CALLS TO GCG PACKAGE FOR TRANSPORT TIME STEP   3 IN FLOW TIME STEP 207 STRESS PERIOD   1
     6 TOTAL ITERATIONS
 
 SOLVING FOR HEAD 
 FLOW MODEL IS TRANSIENT
 FLOW MODEL CONTAINS CONSTANT-HEAD CELLS


 MAXIMUM STEPSIZE DURING WHICH ANY PARTICLE CANNOT MOVE MORE THAN ONE CELL
 =  5.571    (WHEN MIN. R.F.=1)  AT K=   5, I=   1, J=  49

 MAXIMUM STEPSIZE WHICH MEETS STABILITY CRITERION OF THE ADVECTION TERM
 (FOR PURE FINITE-DIFFERENCE OPTION, MIXELM=0) 
 =  3.689    (WHEN MIN. R.F.=1)  AT K=   2, I=   1, J=  44


 TOTAL NUMBER OF POINT SOURCES/SINKS PRESENT IN THE FLOW MODEL =    62

 MAXIMUM STEPSIZE WHICH MEETS STABILITY CRITERION OF THE SINK & SOURCE TERM
 =  374.4    (WHEN MIN. R.F.=1)  AT K=   2, I=   1, J=   1

 MAXIMUM STEPSIZE WHICH MEETS STABILITY CRITERION OF THE DISPERSION TERM
 =  20.29    (WHEN MIN. R.F.=1)  AT K=   1, I=   1, J=  31
     1 CALLS TO GCG PACKAGE FOR TRANSPORT TIME STEP   4 IN FLOW TIME STEP 207 STRESS PERIOD   1
     5 TOTAL ITERATIONS
  MAXIMUM CONCENTRATION CHANGES FOR EACH ITERATION:
  MAX. CHANGE LAYER,ROW,COL MAX. CHANGE LAYER,ROW,COL MAX. CHANGE LAYER,ROW,COL MAX. CHANGE LAYER,ROW,COL MAX. CHANGE LAYER,ROW,COL
 ------------------------------------------------------------------------------------------------------------------------------------
   0.2045E-01 (  2,  1, 76)  0.4537E-03 (  2,  1, 82)  0.1606E-04 (  3,  1, 45)  0.5040E-06 (  3,  1, 77)  0.1657E-07 (  4,  1, 73)


                                          ================================================
                                                         FROM TIME =   2070.0     TO    2080.0    

 
 SOLVING FOR HEAD 
 FLOW MODEL IS TRANSIENT
 FLOW MODEL CONTAINS CONSTANT-HEAD CELLS


 MAXIMUM STEPSIZE DURING WHICH ANY PARTICLE CANNOT MOVE MORE THAN ONE CELL
 =  5.625    (WHEN MIN. R.F.=1)  AT K=   5, I=   1, J=  49

 MAXIMUM STEPSIZE WHICH MEETS STABILITY CRITERION OF THE ADVECTION TERM
 (FOR PURE FINITE-DIFFERENCE OPTION, MIXELM=0) 
 =  3.666    (WHEN MIN. R.F.=1)  AT K=   2, I=   1, J=  81


 TOTAL NUMBER OF POINT SOURCES/SINKS PRESENT IN THE FLOW MODEL =    62

 MAXIMUM STEPSIZE WHICH MEETS STABILITY CRITERION OF THE SINK & SOURCE TERM
 =  417.4    (WHEN MIN. R.F.=1)  AT K=   2, I=   1, J=   1

 MAXIMUM STEPSIZE WHICH MEETS STABILITY CRITERION OF THE DISPERSION TERM
 =  20.29    (WHEN MIN. R.F.=1)  AT K=   1, I=   1, J=  31


     1 CALLS TO GCG PACKAGE FOR TRANSPORT TIME STEP   1 IN FLOW TIME STEP 208 STRESS PERIOD   1
     6 TOTAL ITERATIONS

 NO OUTPUT CONTROL FOR STRESS PERIOD    1   TIME STEP 208
 
 SOLVING FOR HEAD 
 FLOW MODEL IS TRANSIENT
 FLOW MODEL CONTAINS CONSTANT-HEAD CELLS


 MAXIMUM STEPSIZE DURING WHICH ANY PARTICLE CANNOT MOVE MORE THAN ONE CELL
 =  5.724    (WHEN MIN. R.F.=1)  AT K=   5, I=   1, J=  49

 MAXIMUM STEPSIZE WHICH MEETS STABILITY CRITERION OF THE ADVECTION TERM
 (FOR PURE FINITE-DIFFERENCE OPTION, MIXELM=0) 
 =  3.625    (WHEN MIN. R.F.=1)  AT K=   2, I=   1, J=  81


 TOTAL NUMBER OF POINT SOURCES/SINKS PRESENT IN THE FLOW MODEL =    62

 MAXIMUM STEPSIZE WHICH MEETS STABILITY CRITERION OF THE SINK & SOURCE TERM
 =  396.1    (WHEN MIN. R.F.=1)  AT K=   2, I=   1, J=   1

 MAXIMUM STEPSIZE WHICH MEETS STABILITY CRITERION OF THE DISPERSION TERM
 =  20.29    (WHEN MIN. R.F.=1)  AT K=   1, I=   1, J=  31
     1 CALLS TO GCG PACKAGE FOR TRANSPORT TIME STEP   2 IN FLOW TIME STEP 208 STRESS PERIOD   1
     6 TOTAL ITERATIONS
 
 SOLVING FOR HEAD 
 FLOW MODEL IS TRANSIENT
 FLOW MODEL CONTAINS CONSTANT-HEAD CELLS


 MAXIMUM STEPSIZE DURING WHICH ANY PARTICLE CANNOT MOVE MORE THAN ONE CELL
 =  5.788    (WHEN MIN. R.F.=1)  AT K=   4, I=   1, J=  60

 MAXIMUM STEPSIZE WHICH MEETS STABILITY CRITERION OF THE ADVECTION TERM
 (FOR PURE FINITE-DIFFERENCE OPTION, MIXELM=0) 
 =  3.765    (WHEN MIN. R.F.=1)  AT K=   2, I=   1, J=  45


 TOTAL NUMBER OF POINT SOURCES/SINKS PRESENT IN THE FLOW MODEL =    62

 MAXIMUM STEPSIZE WHICH MEETS STABILITY CRITERION OF THE SINK & SOURCE TERM
 =  382.7    (WHEN MIN. R.F.=1)  AT K=   2, I=   1, J=   1

 MAXIMUM STEPSIZE WHICH MEETS STABILITY CRITERION OF THE DISPERSION TERM
 =  20.29    (WHEN MIN. R.F.=1)  AT K=   1, I=   1, J=  31
     1 CALLS TO GCG PACKAGE FOR TRANSPORT TIME STEP   3 IN FLOW TIME STEP 208 STRESS PERIOD   1
     6 TOTAL ITERATIONS
 
 SOLVING FOR HEAD 
 FLOW MODEL IS TRANSIENT
 FLOW MODEL CONTAINS CONSTANT-HEAD CELLS


 MAXIMUM STEPSIZE DURING WHICH ANY PARTICLE CANNOT MOVE MORE THAN ONE CELL
 =  5.786    (WHEN MIN. R.F.=1)  AT K=   4, I=   1, J=  60

 MAXIMUM STEPSIZE WHICH MEETS STABILITY CRITERION OF THE ADVECTION TERM
 (FOR PURE FINITE-DIFFERENCE OPTION, MIXELM=0) 
 =  3.555    (WHEN MIN. R.F.=1)  AT K=   2, I=   1, J=  80


 TOTAL NUMBER OF POINT SOURCES/SINKS PRESENT IN THE FLOW MODEL =    62

 MAXIMUM STEPSIZE WHICH MEETS STABILITY CRITERION OF THE SINK & SOURCE TERM
 =  369.6    (WHEN MIN. R.F.=1)  AT K=   2, I=   1, J=   1

 MAXIMUM STEPSIZE WHICH MEETS STABILITY CRITERION OF THE DISPERSION TERM
 =  20.29    (WHEN MIN. R.F.=1)  AT K=   1, I=   1, J=  31
     1 CALLS TO GCG PACKAGE FOR TRANSPORT TIME STEP   4 IN FLOW TIME STEP 208 STRESS PERIOD   1
     5 TOTAL ITERATIONS
  MAXIMUM CONCENTRATION CHANGES FOR EACH ITERATION:
  MAX. CHANGE LAYER,ROW,COL MAX. CHANGE LAYER,ROW,COL MAX. CHANGE LAYER,ROW,COL MAX. CHANGE LAYER,ROW,COL MAX. CHANGE LAYER,ROW,COL
 ------------------------------------------------------------------------------------------------------------------------------------
   0.2135E-01 (  2,  1, 82)  0.5283E-03 (  2,  1, 81)  0.1877E-04 (  3,  1, 80)  0.7107E-06 (  3,  1, 73)  0.2866E-07 (  3,  1, 49)


                                          ================================================
                                                         FROM TIME =   2080.0     TO    2090.0    

 
 SOLVING FOR HEAD 
 FLOW MODEL IS TRANSIENT
 FLOW MODEL CONTAINS CONSTANT-HEAD CELLS


 MAXIMUM STEPSIZE DURING WHICH ANY PARTICLE CANNOT MOVE MORE THAN ONE CELL
 =  5.704    (WHEN MIN. R.F.=1)  AT K=   4, I=   1, J=  73

 MAXIMUM STEPSIZE WHICH MEETS STABILITY CRITERION OF THE ADVECTION TERM
 (FOR PURE FINITE-DIFFERENCE OPTION, MIXELM=0) 
 =  3.426    (WHEN MIN. R.F.=1)  AT K=   2, I=   1, J=  80


 TOTAL NUMBER OF POINT SOURCES/SINKS PRESENT IN THE FLOW MODEL =    62

 MAXIMUM STEPSIZE WHICH MEETS STABILITY CRITERION OF THE SINK & SOURCE TERM
 =  411.2    (WHEN MIN. R.F.=1)  AT K=   2, I=   1, J=   1

 MAXIMUM STEPSIZE WHICH MEETS STABILITY CRITERION OF THE DISPERSION TERM
 =  20.29    (WHEN MIN. R.F.=1)  AT K=   1, I=   1, J=  31


     1 CALLS TO GCG PACKAGE FOR TRANSPORT TIME STEP   1 IN FLOW TIME STEP 209 STRESS PERIOD   1
     6 TOTAL ITERATIONS

 NO OUTPUT CONTROL FOR STRESS PERIOD    1   TIME STEP 209
 
 SOLVING FOR HEAD 
 FLOW MODEL IS TRANSIENT
 FLOW MODEL CONTAINS CONSTANT-HEAD CELLS


 MAXIMUM STEPSIZE DURING WHICH ANY PARTICLE CANNOT MOVE MORE THAN ONE CELL
 =  5.439    (WHEN MIN. R.F.=1)  AT K=   4, I=   1, J=  73

 MAXIMUM STEPSIZE WHICH MEETS STABILITY CRITERION OF THE ADVECTION TERM
 (FOR PURE FINITE-DIFFERENCE OPTION, MIXELM=0) 
 =  3.357    (WHEN MIN. R.F.=1)  AT K=   2, I=   1, J=  80


 TOTAL NUMBER OF POINT SOURCES/SINKS PRESENT IN THE FLOW MODEL =    62

 MAXIMUM STEPSIZE WHICH MEETS STABILITY CRITERION OF THE SINK & SOURCE TERM
 =  391.4    (WHEN MIN. R.F.=1)  AT K=   2, I=   1, J=   1

 MAXIMUM STEPSIZE WHICH MEETS STABILITY CRITERION OF THE DISPERSION TERM
 =  20.29    (WHEN MIN. R.F.=1)  AT K=   1, I=   1, J=  31
     1 CALLS TO GCG PACKAGE FOR TRANSPORT TIME STEP   2 IN FLOW TIME STEP 209 STRESS PERIOD   1
     6 TOTAL ITERATIONS
 
 SOLVING FOR HEAD 
 FLOW MODEL IS TRANSIENT
 FLOW MODEL CONTAINS CONSTANT-HEAD CELLS


 MAXIMUM STEPSIZE DURING WHICH ANY PARTICLE CANNOT MOVE MORE THAN ONE CELL
 =  5.246    (WHEN MIN. R.F.=1)  AT K=   4, I=   1, J=  73

 MAXIMUM STEPSIZE WHICH MEETS STABILITY CRITERION OF THE ADVECTION TERM
 (FOR PURE FINITE-DIFFERENCE OPTION, MIXELM=0) 
 =  3.441    (WHEN MIN. R.F.=1)  AT K=   2, I=   1, J=  80


 TOTAL NUMBER OF POINT SOURCES/SINKS PRESENT IN THE FLOW MODEL =    62

 MAXIMUM STEPSIZE WHICH MEETS STABILITY CRITERION OF THE SINK & SOURCE TERM
 =  395.4    (WHEN MIN. R.F.=1)  AT K=   2, I=   1, J=   1

 MAXIMUM STEPSIZE WHICH MEETS STABILITY CRITERION OF THE DISPERSION TERM
 =  20.29    (WHEN MIN. R.F.=1)  AT K=   1, I=   1, J=  31
     1 CALLS TO GCG PACKAGE FOR TRANSPORT TIME STEP   3 IN FLOW TIME STEP 209 STRESS PERIOD   1
     6 TOTAL ITERATIONS
 
 SOLVING FOR HEAD 
 FLOW MODEL IS TRANSIENT
 FLOW MODEL CONTAINS CONSTANT-HEAD CELLS


 MAXIMUM STEPSIZE DURING WHICH ANY PARTICLE CANNOT MOVE MORE THAN ONE CELL
 =  5.114    (WHEN MIN. R.F.=1)  AT K=   4, I=   1, J=  73

 MAXIMUM STEPSIZE WHICH MEETS STABILITY CRITERION OF THE ADVECTION TERM
 (FOR PURE FINITE-DIFFERENCE OPTION, MIXELM=0) 
 =  3.670    (WHEN MIN. R.F.=1)  AT K=   2, I=   1, J=  79


 TOTAL NUMBER OF POINT SOURCES/SINKS PRESENT IN THE FLOW MODEL =    62

 MAXIMUM STEPSIZE WHICH MEETS STABILITY CRITERION OF THE SINK & SOURCE TERM
 =  393.1    (WHEN MIN. R.F.=1)  AT K=   2, I=   1, J=   1

 MAXIMUM STEPSIZE WHICH MEETS STABILITY CRITERION OF THE DISPERSION TERM
 =  20.29    (WHEN MIN. R.F.=1)  AT K=   1, I=   1, J=  31
     1 CALLS TO GCG PACKAGE FOR TRANSPORT TIME STEP   4 IN FLOW TIME STEP 209 STRESS PERIOD   1
     6 TOTAL ITERATIONS
  MAXIMUM CONCENTRATION CHANGES FOR EACH ITERATION:
  MAX. CHANGE LAYER,ROW,COL MAX. CHANGE LAYER,ROW,COL MAX. CHANGE LAYER,ROW,COL MAX. CHANGE LAYER,ROW,COL MAX. CHANGE LAYER,ROW,COL
 ------------------------------------------------------------------------------------------------------------------------------------
   0.2996E-01 (  2,  1, 81)  0.1116E-02 (  2,  1, 79)  0.5993E-04 (  3,  1, 79)  0.2462E-05 (  4,  1, 79)  0.1048E-06 (  4,  1, 78)
   0.4988E-08 (  5,  1, 78)


                                          ================================================
                                                         FROM TIME =   2090.0     TO    2100.0    

 
 SOLVING FOR HEAD 
 FLOW MODEL IS TRANSIENT
 FLOW MODEL CONTAINS CONSTANT-HEAD CELLS


 MAXIMUM STEPSIZE DURING WHICH ANY PARTICLE CANNOT MOVE MORE THAN ONE CELL
 =  5.040    (WHEN MIN. R.F.=1)  AT K=   4, I=   1, J=  73

 MAXIMUM STEPSIZE WHICH MEETS STABILITY CRITERION OF THE ADVECTION TERM
 (FOR PURE FINITE-DIFFERENCE OPTION, MIXELM=0) 
 =  3.429    (WHEN MIN. R.F.=1)  AT K=   2, I=   1, J=  79


 TOTAL NUMBER OF POINT SOURCES/SINKS PRESENT IN THE FLOW MODEL =    62

 MAXIMUM STEPSIZE WHICH MEETS STABILITY CRITERION OF THE SINK & SOURCE TERM
 =  399.1    (WHEN MIN. R.F.=1)  AT K=   2, I=   1, J=   1

 MAXIMUM STEPSIZE WHICH MEETS STABILITY CRITERION OF THE DISPERSION TERM
 =  20.29    (WHEN MIN. R.F.=1)  AT K=   1, I=   1, J=  31


     1 CALLS TO GCG PACKAGE FOR TRANSPORT TIME STEP   1 IN FLOW TIME STEP 210 STRESS PERIOD   1
     6 TOTAL ITERATIONS

 NO OUTPUT CONTROL FOR STRESS PERIOD    1   TIME STEP 210
 
 SOLVING FOR HEAD 
 FLOW MODEL IS TRANSIENT
 FLOW MODEL CONTAINS CONSTANT-HEAD CELLS


 MAXIMUM STEPSIZE DURING WHICH ANY PARTICLE CANNOT MOVE MORE THAN ONE CELL
 =  5.006    (WHEN MIN. R.F.=1)  AT K=   4, I=   1, J=  73

 MAXIMUM STEPSIZE WHICH MEETS STABILITY CRITERION OF THE ADVECTION TERM
 (FOR PURE FINITE-DIFFERENCE OPTION, MIXELM=0) 
 =  3.300    (WHEN MIN. R.F.=1)  AT K=   2, I=   1, J=  79


 TOTAL NUMBER OF POINT SOURCES/SINKS PRESENT IN THE FLOW MODEL =    62

 MAXIMUM STEPSIZE WHICH MEETS STABILITY CRITERION OF THE SINK & SOURCE TERM
 =  389.0    (WHEN MIN. R.F.=1)  AT K=   2, I=   1, J=   1

 MAXIMUM STEPSIZE WHICH MEETS STABILITY CRITERION OF THE DISPERSION TERM
 =  20.29    (WHEN MIN. R.F.=1)  AT K=   1, I=   1, J=  31
     1 CALLS TO GCG PACKAGE FOR TRANSPORT TIME STEP   2 IN FLOW TIME STEP 210 STRESS PERIOD   1
     6 TOTAL ITERATIONS
 
 SOLVING FOR HEAD 
 FLOW MODEL IS TRANSIENT
 FLOW MODEL CONTAINS CONSTANT-HEAD CELLS


 MAXIMUM STEPSIZE DURING WHICH ANY PARTICLE CANNOT MOVE MORE THAN ONE CELL
 =  5.021    (WHEN MIN. R.F.=1)  AT K=   4, I=   1, J=  73

 MAXIMUM STEPSIZE WHICH MEETS STABILITY CRITERION OF THE ADVECTION TERM
 (FOR PURE FINITE-DIFFERENCE OPTION, MIXELM=0) 
 =  3.323    (WHEN MIN. R.F.=1)  AT K=   2, I=   1, J=  79


 TOTAL NUMBER OF POINT SOURCES/SINKS PRESENT IN THE FLOW MODEL =    62

 MAXIMUM STEPSIZE WHICH MEETS STABILITY CRITERION OF THE SINK & SOURCE TERM
 =  415.4    (WHEN MIN. R.F.=1)  AT K=   2, I=   1, J=   1

 MAXIMUM STEPSIZE WHICH MEETS STABILITY CRITERION OF THE DISPERSION TERM
 =  20.29    (WHEN MIN. R.F.=1)  AT K=   1, I=   1, J=  31
     1 CALLS TO GCG PACKAGE FOR TRANSPORT TIME STEP   3 IN FLOW TIME STEP 210 STRESS PERIOD   1
     6 TOTAL ITERATIONS
 
 SOLVING FOR HEAD 
 FLOW MODEL IS TRANSIENT
 FLOW MODEL CONTAINS CONSTANT-HEAD CELLS


 MAXIMUM STEPSIZE DURING WHICH ANY PARTICLE CANNOT MOVE MORE THAN ONE CELL
 =  5.078    (WHEN MIN. R.F.=1)  AT K=   4, I=   1, J=  73

 MAXIMUM STEPSIZE WHICH MEETS STABILITY CRITERION OF THE ADVECTION TERM
 (FOR PURE FINITE-DIFFERENCE OPTION, MIXELM=0) 
 =  3.503    (WHEN MIN. R.F.=1)  AT K=   2, I=   1, J=  79


 TOTAL NUMBER OF POINT SOURCES/SINKS PRESENT IN THE FLOW MODEL =    62

 MAXIMUM STEPSIZE WHICH MEETS STABILITY CRITERION OF THE SINK & SOURCE TERM
 =  427.0    (WHEN MIN. R.F.=1)  AT K=   2, I=   1, J=   1

 MAXIMUM STEPSIZE WHICH MEETS STABILITY CRITERION OF THE DISPERSION TERM
 =  20.29    (WHEN MIN. R.F.=1)  AT K=   1, I=   1, J=  31
     1 CALLS TO GCG PACKAGE FOR TRANSPORT TIME STEP   4 IN FLOW TIME STEP 210 STRESS PERIOD   1
     5 TOTAL ITERATIONS
  MAXIMUM CONCENTRATION CHANGES FOR EACH ITERATION:
  MAX. CHANGE LAYER,ROW,COL MAX. CHANGE LAYER,ROW,COL MAX. CHANGE LAYER,ROW,COL MAX. CHANGE LAYER,ROW,COL MAX. CHANGE LAYER,ROW,COL
 ------------------------------------------------------------------------------------------------------------------------------------
   0.2989E-01 (  2,  1, 80)  0.1073E-02 (  2,  1, 78)  0.6004E-04 (  3,  1, 78)  0.2393E-05 (  4,  1, 78)  0.9893E-07 (  5,  1, 78)


                                          ================================================
                                                         FROM TIME =   2100.0     TO    2110.0    

 
 SOLVING FOR HEAD 
 FLOW MODEL IS TRANSIENT
 FLOW MODEL CONTAINS CONSTANT-HEAD CELLS


 MAXIMUM STEPSIZE DURING WHICH ANY PARTICLE CANNOT MOVE MORE THAN ONE CELL
 =  5.142    (WHEN MIN. R.F.=1)  AT K=   5, I=   1, J=  73

 MAXIMUM STEPSIZE WHICH MEETS STABILITY CRITERION OF THE ADVECTION TERM
 (FOR PURE FINITE-DIFFERENCE OPTION, MIXELM=0) 
 =  3.730    (WHEN MIN. R.F.=1)  AT K=   2, I=   1, J=  78


 TOTAL NUMBER OF POINT SOURCES/SINKS PRESENT IN THE FLOW MODEL =    62

 MAXIMUM STEPSIZE WHICH MEETS STABILITY CRITERION OF THE SINK & SOURCE TERM
 =  444.3    (WHEN MIN. R.F.=1)  AT K=   2, I=   1, J=   1

 MAXIMUM STEPSIZE WHICH MEETS STABILITY CRITERION OF THE DISPERSION TERM
 =  20.29    (WHEN MIN. R.F.=1)  AT K=   1, I=   1, J=  31


     1 CALLS TO GCG PACKAGE FOR TRANSPORT TIME STEP   1 IN FLOW TIME STEP 211 STRESS PERIOD   1
     6 TOTAL ITERATIONS

 NO OUTPUT CONTROL FOR STRESS PERIOD    1   TIME STEP 211
 
 SOLVING FOR HEAD 
 FLOW MODEL IS TRANSIENT
 FLOW MODEL CONTAINS CONSTANT-HEAD CELLS


 MAXIMUM STEPSIZE DURING WHICH ANY PARTICLE CANNOT MOVE MORE THAN ONE CELL
 =  5.206    (WHEN MIN. R.F.=1)  AT K=   5, I=   1, J=  73

 MAXIMUM STEPSIZE WHICH MEETS STABILITY CRITERION OF THE ADVECTION TERM
 (FOR PURE FINITE-DIFFERENCE OPTION, MIXELM=0) 
 =  3.479    (WHEN MIN. R.F.=1)  AT K=   2, I=   1, J=  78


 TOTAL NUMBER OF POINT SOURCES/SINKS PRESENT IN THE FLOW MODEL =    62

 MAXIMUM STEPSIZE WHICH MEETS STABILITY CRITERION OF THE SINK & SOURCE TERM
 =  438.6    (WHEN MIN. R.F.=1)  AT K=   2, I=   1, J=   1

 MAXIMUM STEPSIZE WHICH MEETS STABILITY CRITERION OF THE DISPERSION TERM
 =  20.29    (WHEN MIN. R.F.=1)  AT K=   1, I=   1, J=  31
     1 CALLS TO GCG PACKAGE FOR TRANSPORT TIME STEP   2 IN FLOW TIME STEP 211 STRESS PERIOD   1
     6 TOTAL ITERATIONS
 
 SOLVING FOR HEAD 
 FLOW MODEL IS TRANSIENT
 FLOW MODEL CONTAINS CONSTANT-HEAD CELLS


 MAXIMUM STEPSIZE DURING WHICH ANY PARTICLE CANNOT MOVE MORE THAN ONE CELL
 =  5.307    (WHEN MIN. R.F.=1)  AT K=   5, I=   1, J=  73

 MAXIMUM STEPSIZE WHICH MEETS STABILITY CRITERION OF THE ADVECTION TERM
 (FOR PURE FINITE-DIFFERENCE OPTION, MIXELM=0) 
 =  3.380    (WHEN MIN. R.F.=1)  AT K=   2, I=   1, J=  78


 TOTAL NUMBER OF POINT SOURCES/SINKS PRESENT IN THE FLOW MODEL =    62

 MAXIMUM STEPSIZE WHICH MEETS STABILITY CRITERION OF THE SINK & SOURCE TERM
 =  436.0    (WHEN MIN. R.F.=1)  AT K=   2, I=   1, J=   1

 MAXIMUM STEPSIZE WHICH MEETS STABILITY CRITERION OF THE DISPERSION TERM
 =  20.29    (WHEN MIN. R.F.=1)  AT K=   1, I=   1, J=  31
     1 CALLS TO GCG PACKAGE FOR TRANSPORT TIME STEP   3 IN FLOW TIME STEP 211 STRESS PERIOD   1
     6 TOTAL ITERATIONS
 
 SOLVING FOR HEAD 
 FLOW MODEL IS TRANSIENT
 FLOW MODEL CONTAINS CONSTANT-HEAD CELLS


 MAXIMUM STEPSIZE DURING WHICH ANY PARTICLE CANNOT MOVE MORE THAN ONE CELL
 =  5.432    (WHEN MIN. R.F.=1)  AT K=   6, I=   1, J=  73

 MAXIMUM STEPSIZE WHICH MEETS STABILITY CRITERION OF THE ADVECTION TERM
 (FOR PURE FINITE-DIFFERENCE OPTION, MIXELM=0) 
 =  3.420    (WHEN MIN. R.F.=1)  AT K=   2, I=   1, J=  78


 TOTAL NUMBER OF POINT SOURCES/SINKS PRESENT IN THE FLOW MODEL =    62

 MAXIMUM STEPSIZE WHICH MEETS STABILITY CRITERION OF THE SINK & SOURCE TERM
 =  444.4    (WHEN MIN. R.F.=1)  AT K=   2, I=   1, J=   1

 MAXIMUM STEPSIZE WHICH MEETS STABILITY CRITERION OF THE DISPERSION TERM
 =  20.29    (WHEN MIN. R.F.=1)  AT K=   1, I=   1, J=  31
     1 CALLS TO GCG PACKAGE FOR TRANSPORT TIME STEP   4 IN FLOW TIME STEP 211 STRESS PERIOD   1
     5 TOTAL ITERATIONS
  MAXIMUM CONCENTRATION CHANGES FOR EACH ITERATION:
  MAX. CHANGE LAYER,ROW,COL MAX. CHANGE LAYER,ROW,COL MAX. CHANGE LAYER,ROW,COL MAX. CHANGE LAYER,ROW,COL MAX. CHANGE LAYER,ROW,COL
 ------------------------------------------------------------------------------------------------------------------------------------
   0.2765E-01 (  2,  1, 79)  0.7202E-03 (  2,  1, 79)  0.2829E-04 (  2,  1, 80)  0.1836E-05 (  3,  1, 75)  0.5533E-07 (  4,  1, 75)


                                          ================================================
                                                         FROM TIME =   2110.0     TO    2120.0    

 
 SOLVING FOR HEAD 
 FLOW MODEL IS TRANSIENT
 FLOW MODEL CONTAINS CONSTANT-HEAD CELLS


 MAXIMUM STEPSIZE DURING WHICH ANY PARTICLE CANNOT MOVE MORE THAN ONE CELL
 =  5.499    (WHEN MIN. R.F.=1)  AT K=   6, I=   1, J=  73

 MAXIMUM STEPSIZE WHICH MEETS STABILITY CRITERION OF THE ADVECTION TERM
 (FOR PURE FINITE-DIFFERENCE OPTION, MIXELM=0) 
 =  3.551    (WHEN MIN. R.F.=1)  AT K=   2, I=   1, J=  78


 TOTAL NUMBER OF POINT SOURCES/SINKS PRESENT IN THE FLOW MODEL =    62

 MAXIMUM STEPSIZE WHICH MEETS STABILITY CRITERION OF THE SINK & SOURCE TERM
 =  484.9    (WHEN MIN. R.F.=1)  AT K=   2, I=   1, J=   1

 MAXIMUM STEPSIZE WHICH MEETS STABILITY CRITERION OF THE DISPERSION TERM
 =  20.29    (WHEN MIN. R.F.=1)  AT K=   1, I=   1, J=  31


     1 CALLS TO GCG PACKAGE FOR TRANSPORT TIME STEP   1 IN FLOW TIME STEP 212 STRESS PERIOD   1
     6 TOTAL ITERATIONS

 NO OUTPUT CONTROL FOR STRESS PERIOD    1   TIME STEP 212
 
 SOLVING FOR HEAD 
 FLOW MODEL IS TRANSIENT
 FLOW MODEL CONTAINS CONSTANT-HEAD CELLS


 MAXIMUM STEPSIZE DURING WHICH ANY PARTICLE CANNOT MOVE MORE THAN ONE CELL
 =  5.611    (WHEN MIN. R.F.=1)  AT K=   6, I=   1, J=  73

 MAXIMUM STEPSIZE WHICH MEETS STABILITY CRITERION OF THE ADVECTION TERM
 (FOR PURE FINITE-DIFFERENCE OPTION, MIXELM=0) 
 =  3.891    (WHEN MIN. R.F.=1)  AT K=   2, I=   1, J=  78


 TOTAL NUMBER OF POINT SOURCES/SINKS PRESENT IN THE FLOW MODEL =    62

 MAXIMUM STEPSIZE WHICH MEETS STABILITY CRITERION OF THE SINK & SOURCE TERM
 =  454.5    (WHEN MIN. R.F.=1)  AT K=   2, I=   1, J=   1

 MAXIMUM STEPSIZE WHICH MEETS STABILITY CRITERION OF THE DISPERSION TERM
 =  20.29    (WHEN MIN. R.F.=1)  AT K=   1, I=   1, J=  31
     1 CALLS TO GCG PACKAGE FOR TRANSPORT TIME STEP   2 IN FLOW TIME STEP 212 STRESS PERIOD   1
     6 TOTAL ITERATIONS
 
 SOLVING FOR HEAD 
 FLOW MODEL IS TRANSIENT
 FLOW MODEL CONTAINS CONSTANT-HEAD CELLS


 MAXIMUM STEPSIZE DURING WHICH ANY PARTICLE CANNOT MOVE MORE THAN ONE CELL
 =  5.740    (WHEN MIN. R.F.=1)  AT K=   7, I=   1, J=  73

 MAXIMUM STEPSIZE WHICH MEETS STABILITY CRITERION OF THE ADVECTION TERM
 (FOR PURE FINITE-DIFFERENCE OPTION, MIXELM=0) 
 =  3.620    (WHEN MIN. R.F.=1)  AT K=   2, I=   1, J=  77


 TOTAL NUMBER OF POINT SOURCES/SINKS PRESENT IN THE FLOW MODEL =    62

 MAXIMUM STEPSIZE WHICH MEETS STABILITY CRITERION OF THE SINK & SOURCE TERM
 =  430.6    (WHEN MIN. R.F.=1)  AT K=   2, I=   1, J=   1

 MAXIMUM STEPSIZE WHICH MEETS STABILITY CRITERION OF THE DISPERSION TERM
 =  20.29    (WHEN MIN. R.F.=1)  AT K=   1, I=   1, J=  31
     1 CALLS TO GCG PACKAGE FOR TRANSPORT TIME STEP   3 IN FLOW TIME STEP 212 STRESS PERIOD   1
     6 TOTAL ITERATIONS
 
 SOLVING FOR HEAD 
 FLOW MODEL IS TRANSIENT
 FLOW MODEL CONTAINS CONSTANT-HEAD CELLS


 MAXIMUM STEPSIZE DURING WHICH ANY PARTICLE CANNOT MOVE MORE THAN ONE CELL
 =  5.763    (WHEN MIN. R.F.=1)  AT K=   4, I=   1, J=  60

 MAXIMUM STEPSIZE WHICH MEETS STABILITY CRITERION OF THE ADVECTION TERM
 (FOR PURE FINITE-DIFFERENCE OPTION, MIXELM=0) 
 =  3.475    (WHEN MIN. R.F.=1)  AT K=   2, I=   1, J=  77


 TOTAL NUMBER OF POINT SOURCES/SINKS PRESENT IN THE FLOW MODEL =    62

 MAXIMUM STEPSIZE WHICH MEETS STABILITY CRITERION OF THE SINK & SOURCE TERM
 =  415.7    (WHEN MIN. R.F.=1)  AT K=   2, I=   1, J=   1

 MAXIMUM STEPSIZE WHICH MEETS STABILITY CRITERION OF THE DISPERSION TERM
 =  20.29    (WHEN MIN. R.F.=1)  AT K=   1, I=   1, J=  31
     1 CALLS TO GCG PACKAGE FOR TRANSPORT TIME STEP   4 IN FLOW TIME STEP 212 STRESS PERIOD   1
     5 TOTAL ITERATIONS
  MAXIMUM CONCENTRATION CHANGES FOR EACH ITERATION:
  MAX. CHANGE LAYER,ROW,COL MAX. CHANGE LAYER,ROW,COL MAX. CHANGE LAYER,ROW,COL MAX. CHANGE LAYER,ROW,COL MAX. CHANGE LAYER,ROW,COL
 ------------------------------------------------------------------------------------------------------------------------------------
   0.2296E-01 (  2,  1, 78)  0.7075E-03 (  2,  1, 78)  0.2547E-04 (  3,  1, 42)  0.9619E-06 (  4,  1, 42)  0.3868E-07 (  3,  1, 80)


                                          ================================================
                                                         FROM TIME =   2120.0     TO    2130.0    

 
 SOLVING FOR HEAD 
 FLOW MODEL IS TRANSIENT
 FLOW MODEL CONTAINS CONSTANT-HEAD CELLS


 MAXIMUM STEPSIZE DURING WHICH ANY PARTICLE CANNOT MOVE MORE THAN ONE CELL
 =  5.764    (WHEN MIN. R.F.=1)  AT K=   4, I=   1, J=  60

 MAXIMUM STEPSIZE WHICH MEETS STABILITY CRITERION OF THE ADVECTION TERM
 (FOR PURE FINITE-DIFFERENCE OPTION, MIXELM=0) 
 =  3.476    (WHEN MIN. R.F.=1)  AT K=   2, I=   1, J=  77


 TOTAL NUMBER OF POINT SOURCES/SINKS PRESENT IN THE FLOW MODEL =    62

 MAXIMUM STEPSIZE WHICH MEETS STABILITY CRITERION OF THE SINK & SOURCE TERM
 =  489.0    (WHEN MIN. R.F.=1)  AT K=   2, I=   1, J=   1

 MAXIMUM STEPSIZE WHICH MEETS STABILITY CRITERION OF THE DISPERSION TERM
 =  20.29    (WHEN MIN. R.F.=1)  AT K=   1, I=   1, J=  31


     1 CALLS TO GCG PACKAGE FOR TRANSPORT TIME STEP   1 IN FLOW TIME STEP 213 STRESS PERIOD   1
     6 TOTAL ITERATIONS

 NO OUTPUT CONTROL FOR STRESS PERIOD    1   TIME STEP 213
 
 SOLVING FOR HEAD 
 FLOW MODEL IS TRANSIENT
 FLOW MODEL CONTAINS CONSTANT-HEAD CELLS


 MAXIMUM STEPSIZE DURING WHICH ANY PARTICLE CANNOT MOVE MORE THAN ONE CELL
 =  5.763    (WHEN MIN. R.F.=1)  AT K=   4, I=   1, J=  60

 MAXIMUM STEPSIZE WHICH MEETS STABILITY CRITERION OF THE ADVECTION TERM
 (FOR PURE FINITE-DIFFERENCE OPTION, MIXELM=0) 
 =  3.552    (WHEN MIN. R.F.=1)  AT K=   2, I=   1, J=  77


 TOTAL NUMBER OF POINT SOURCES/SINKS PRESENT IN THE FLOW MODEL =    62

 MAXIMUM STEPSIZE WHICH MEETS STABILITY CRITERION OF THE SINK & SOURCE TERM
 =  470.8    (WHEN MIN. R.F.=1)  AT K=   2, I=   1, J=   1

 MAXIMUM STEPSIZE WHICH MEETS STABILITY CRITERION OF THE DISPERSION TERM
 =  20.29    (WHEN MIN. R.F.=1)  AT K=   1, I=   1, J=  31
     1 CALLS TO GCG PACKAGE FOR TRANSPORT TIME STEP   2 IN FLOW TIME STEP 213 STRESS PERIOD   1
     6 TOTAL ITERATIONS
 
 SOLVING FOR HEAD 
 FLOW MODEL IS TRANSIENT
 FLOW MODEL CONTAINS CONSTANT-HEAD CELLS


 MAXIMUM STEPSIZE DURING WHICH ANY PARTICLE CANNOT MOVE MORE THAN ONE CELL
 =  5.762    (WHEN MIN. R.F.=1)  AT K=   4, I=   1, J=  60

 MAXIMUM STEPSIZE WHICH MEETS STABILITY CRITERION OF THE ADVECTION TERM
 (FOR PURE FINITE-DIFFERENCE OPTION, MIXELM=0) 
 =  3.688    (WHEN MIN. R.F.=1)  AT K=   2, I=   1, J=  42


 TOTAL NUMBER OF POINT SOURCES/SINKS PRESENT IN THE FLOW MODEL =    62

 MAXIMUM STEPSIZE WHICH MEETS STABILITY CRITERION OF THE SINK & SOURCE TERM
 =  459.0    (WHEN MIN. R.F.=1)  AT K=   2, I=   1, J=   1

 MAXIMUM STEPSIZE WHICH MEETS STABILITY CRITERION OF THE DISPERSION TERM
 =  20.29    (WHEN MIN. R.F.=1)  AT K=   1, I=   1, J=  31
     1 CALLS TO GCG PACKAGE FOR TRANSPORT TIME STEP   3 IN FLOW TIME STEP 213 STRESS PERIOD   1
     6 TOTAL ITERATIONS
 
 SOLVING FOR HEAD 
 FLOW MODEL IS TRANSIENT
 FLOW MODEL CONTAINS CONSTANT-HEAD CELLS


 MAXIMUM STEPSIZE DURING WHICH ANY PARTICLE CANNOT MOVE MORE THAN ONE CELL
 =  5.761    (WHEN MIN. R.F.=1)  AT K=   4, I=   1, J=  60

 MAXIMUM STEPSIZE WHICH MEETS STABILITY CRITERION OF THE ADVECTION TERM
 (FOR PURE FINITE-DIFFERENCE OPTION, MIXELM=0) 
 =  3.488    (WHEN MIN. R.F.=1)  AT K=   2, I=   1, J=  42


 TOTAL NUMBER OF POINT SOURCES/SINKS PRESENT IN THE FLOW MODEL =    62

 MAXIMUM STEPSIZE WHICH MEETS STABILITY CRITERION OF THE SINK & SOURCE TERM
 =  452.7    (WHEN MIN. R.F.=1)  AT K=   2, I=   1, J=   1

 MAXIMUM STEPSIZE WHICH MEETS STABILITY CRITERION OF THE DISPERSION TERM
 =  20.29    (WHEN MIN. R.F.=1)  AT K=   1, I=   1, J=  31
     1 CALLS TO GCG PACKAGE FOR TRANSPORT TIME STEP   4 IN FLOW TIME STEP 213 STRESS PERIOD   1
     5 TOTAL ITERATIONS
  MAXIMUM CONCENTRATION CHANGES FOR EACH ITERATION:
  MAX. CHANGE LAYER,ROW,COL MAX. CHANGE LAYER,ROW,COL MAX. CHANGE LAYER,ROW,COL MAX. CHANGE LAYER,ROW,COL MAX. CHANGE LAYER,ROW,COL
 ------------------------------------------------------------------------------------------------------------------------------------
   0.2513E-01 (  2,  1, 78)  0.1059E-02 (  2,  1, 76)  0.4109E-04 (  3,  1, 76)  0.1625E-05 (  4,  1, 43)  0.6605E-07 (  4,  1, 45)


                                          ================================================
                                                         FROM TIME =   2130.0     TO    2140.0    

 
 SOLVING FOR HEAD 
 FLOW MODEL IS TRANSIENT
 FLOW MODEL CONTAINS CONSTANT-HEAD CELLS


 MAXIMUM STEPSIZE DURING WHICH ANY PARTICLE CANNOT MOVE MORE THAN ONE CELL
 =  5.742    (WHEN MIN. R.F.=1)  AT K=   4, I=   1, J=  49

 MAXIMUM STEPSIZE WHICH MEETS STABILITY CRITERION OF THE ADVECTION TERM
 (FOR PURE FINITE-DIFFERENCE OPTION, MIXELM=0) 
 =  3.444    (WHEN MIN. R.F.=1)  AT K=   2, I=   1, J=  42


 TOTAL NUMBER OF POINT SOURCES/SINKS PRESENT IN THE FLOW MODEL =    62

 MAXIMUM STEPSIZE WHICH MEETS STABILITY CRITERION OF THE SINK & SOURCE TERM
 =  485.7    (WHEN MIN. R.F.=1)  AT K=   2, I=   1, J=   1

 MAXIMUM STEPSIZE WHICH MEETS STABILITY CRITERION OF THE DISPERSION TERM
 =  20.29    (WHEN MIN. R.F.=1)  AT K=   1, I=   1, J=  31


     1 CALLS TO GCG PACKAGE FOR TRANSPORT TIME STEP   1 IN FLOW TIME STEP 214 STRESS PERIOD   1
     6 TOTAL ITERATIONS

 NO OUTPUT CONTROL FOR STRESS PERIOD    1   TIME STEP 214
 
 SOLVING FOR HEAD 
 FLOW MODEL IS TRANSIENT
 FLOW MODEL CONTAINS CONSTANT-HEAD CELLS


 MAXIMUM STEPSIZE DURING WHICH ANY PARTICLE CANNOT MOVE MORE THAN ONE CELL
 =  5.644    (WHEN MIN. R.F.=1)  AT K=   4, I=   1, J=  49

 MAXIMUM STEPSIZE WHICH MEETS STABILITY CRITERION OF THE ADVECTION TERM
 (FOR PURE FINITE-DIFFERENCE OPTION, MIXELM=0) 
 =  3.495    (WHEN MIN. R.F.=1)  AT K=   2, I=   1, J=  42


 TOTAL NUMBER OF POINT SOURCES/SINKS PRESENT IN THE FLOW MODEL =    62

 MAXIMUM STEPSIZE WHICH MEETS STABILITY CRITERION OF THE SINK & SOURCE TERM
 =  494.7    (WHEN MIN. R.F.=1)  AT K=   2, I=   1, J=   1

 MAXIMUM STEPSIZE WHICH MEETS STABILITY CRITERION OF THE DISPERSION TERM
 =  20.29    (WHEN MIN. R.F.=1)  AT K=   1, I=   1, J=  31
     1 CALLS TO GCG PACKAGE FOR TRANSPORT TIME STEP   2 IN FLOW TIME STEP 214 STRESS PERIOD   1
     6 TOTAL ITERATIONS
 
 SOLVING FOR HEAD 
 FLOW MODEL IS TRANSIENT
 FLOW MODEL CONTAINS CONSTANT-HEAD CELLS


 MAXIMUM STEPSIZE DURING WHICH ANY PARTICLE CANNOT MOVE MORE THAN ONE CELL
 =  5.564    (WHEN MIN. R.F.=1)  AT K=   4, I=   1, J=  49

 MAXIMUM STEPSIZE WHICH MEETS STABILITY CRITERION OF THE ADVECTION TERM
 (FOR PURE FINITE-DIFFERENCE OPTION, MIXELM=0) 
 =  3.693    (WHEN MIN. R.F.=1)  AT K=   2, I=   1, J=  42


 TOTAL NUMBER OF POINT SOURCES/SINKS PRESENT IN THE FLOW MODEL =    62

 MAXIMUM STEPSIZE WHICH MEETS STABILITY CRITERION OF THE SINK & SOURCE TERM
 =  556.6    (WHEN MIN. R.F.=1)  AT K=   2, I=   1, J=   1

 MAXIMUM STEPSIZE WHICH MEETS STABILITY CRITERION OF THE DISPERSION TERM
 =  20.29    (WHEN MIN. R.F.=1)  AT K=   1, I=   1, J=  31
     1 CALLS TO GCG PACKAGE FOR TRANSPORT TIME STEP   3 IN FLOW TIME STEP 214 STRESS PERIOD   1
     6 TOTAL ITERATIONS
 
 SOLVING FOR HEAD 
 FLOW MODEL IS TRANSIENT
 FLOW MODEL CONTAINS CONSTANT-HEAD CELLS


 MAXIMUM STEPSIZE DURING WHICH ANY PARTICLE CANNOT MOVE MORE THAN ONE CELL
 =  5.501    (WHEN MIN. R.F.=1)  AT K=   4, I=   1, J=  49

 MAXIMUM STEPSIZE WHICH MEETS STABILITY CRITERION OF THE ADVECTION TERM
 (FOR PURE FINITE-DIFFERENCE OPTION, MIXELM=0) 
 =  3.720    (WHEN MIN. R.F.=1)  AT K=   2, I=   1, J=  43


 TOTAL NUMBER OF POINT SOURCES/SINKS PRESENT IN THE FLOW MODEL =    62

 MAXIMUM STEPSIZE WHICH MEETS STABILITY CRITERION OF THE SINK & SOURCE TERM
 =  550.8    (WHEN MIN. R.F.=1)  AT K=   2, I=   1, J=   1

 MAXIMUM STEPSIZE WHICH MEETS STABILITY CRITERION OF THE DISPERSION TERM
 =  20.29    (WHEN MIN. R.F.=1)  AT K=   1, I=   1, J=  31
     1 CALLS TO GCG PACKAGE FOR TRANSPORT TIME STEP   4 IN FLOW TIME STEP 214 STRESS PERIOD   1
     5 TOTAL ITERATIONS
  MAXIMUM CONCENTRATION CHANGES FOR EACH ITERATION:
  MAX. CHANGE LAYER,ROW,COL MAX. CHANGE LAYER,ROW,COL MAX. CHANGE LAYER,ROW,COL MAX. CHANGE LAYER,ROW,COL MAX. CHANGE LAYER,ROW,COL
 ------------------------------------------------------------------------------------------------------------------------------------
   0.2966E-01 (  2,  1, 77)  0.8551E-03 (  2,  1, 74)  0.3836E-04 (  2,  1, 78)  0.2036E-05 (  3,  1, 46)  0.8837E-07 (  4,  1, 46)


                                          ================================================
                                                         FROM TIME =   2140.0     TO    2150.0    

 
 SOLVING FOR HEAD 
 FLOW MODEL IS TRANSIENT
 FLOW MODEL CONTAINS CONSTANT-HEAD CELLS


 MAXIMUM STEPSIZE DURING WHICH ANY PARTICLE CANNOT MOVE MORE THAN ONE CELL
 =  5.465    (WHEN MIN. R.F.=1)  AT K=   4, I=   1, J=  49

 MAXIMUM STEPSIZE WHICH MEETS STABILITY CRITERION OF THE ADVECTION TERM
 (FOR PURE FINITE-DIFFERENCE OPTION, MIXELM=0) 
 =  3.561    (WHEN MIN. R.F.=1)  AT K=   2, I=   1, J=  43


 TOTAL NUMBER OF POINT SOURCES/SINKS PRESENT IN THE FLOW MODEL =    62

 MAXIMUM STEPSIZE WHICH MEETS STABILITY CRITERION OF THE SINK & SOURCE TERM
 =  556.2    (WHEN MIN. R.F.=1)  AT K=   2, I=   1, J=   1

 MAXIMUM STEPSIZE WHICH MEETS STABILITY CRITERION OF THE DISPERSION TERM
 =  20.29    (WHEN MIN. R.F.=1)  AT K=   1, I=   1, J=  31


     1 CALLS TO GCG PACKAGE FOR TRANSPORT TIME STEP   1 IN FLOW TIME STEP 215 STRESS PERIOD   1
     6 TOTAL ITERATIONS

 NO OUTPUT CONTROL FOR STRESS PERIOD    1   TIME STEP 215
 
 SOLVING FOR HEAD 
 FLOW MODEL IS TRANSIENT
 FLOW MODEL CONTAINS CONSTANT-HEAD CELLS


 MAXIMUM STEPSIZE DURING WHICH ANY PARTICLE CANNOT MOVE MORE THAN ONE CELL
 =  5.439    (WHEN MIN. R.F.=1)  AT K=   4, I=   1, J=  49

 MAXIMUM STEPSIZE WHICH MEETS STABILITY CRITERION OF THE ADVECTION TERM
 (FOR PURE FINITE-DIFFERENCE OPTION, MIXELM=0) 
 =  3.498    (WHEN MIN. R.F.=1)  AT K=   2, I=   1, J=  43


 TOTAL NUMBER OF POINT SOURCES/SINKS PRESENT IN THE FLOW MODEL =    62

 MAXIMUM STEPSIZE WHICH MEETS STABILITY CRITERION OF THE SINK & SOURCE TERM
 =  524.8    (WHEN MIN. R.F.=1)  AT K=   2, I=   1, J=   1

 MAXIMUM STEPSIZE WHICH MEETS STABILITY CRITERION OF THE DISPERSION TERM
 =  20.29    (WHEN MIN. R.F.=1)  AT K=   1, I=   1, J=  31
     1 CALLS TO GCG PACKAGE FOR TRANSPORT TIME STEP   2 IN FLOW TIME STEP 215 STRESS PERIOD   1
     6 TOTAL ITERATIONS
 
 SOLVING FOR HEAD 
 FLOW MODEL IS TRANSIENT
 FLOW MODEL CONTAINS CONSTANT-HEAD CELLS


 MAXIMUM STEPSIZE DURING WHICH ANY PARTICLE CANNOT MOVE MORE THAN ONE CELL
 =  5.433    (WHEN MIN. R.F.=1)  AT K=   4, I=   1, J=  49

 MAXIMUM STEPSIZE WHICH MEETS STABILITY CRITERION OF THE ADVECTION TERM
 (FOR PURE FINITE-DIFFERENCE OPTION, MIXELM=0) 
 =  3.562    (WHEN MIN. R.F.=1)  AT K=   2, I=   1, J=  43


 TOTAL NUMBER OF POINT SOURCES/SINKS PRESENT IN THE FLOW MODEL =    62

 MAXIMUM STEPSIZE WHICH MEETS STABILITY CRITERION OF THE SINK & SOURCE TERM
 =  556.6    (WHEN MIN. R.F.=1)  AT K=   2, I=   1, J=   1

 MAXIMUM STEPSIZE WHICH MEETS STABILITY CRITERION OF THE DISPERSION TERM
 =  20.29    (WHEN MIN. R.F.=1)  AT K=   1, I=   1, J=  31
     1 CALLS TO GCG PACKAGE FOR TRANSPORT TIME STEP   3 IN FLOW TIME STEP 215 STRESS PERIOD   1
     6 TOTAL ITERATIONS
 
 SOLVING FOR HEAD 
 FLOW MODEL IS TRANSIENT
 FLOW MODEL CONTAINS CONSTANT-HEAD CELLS


 MAXIMUM STEPSIZE DURING WHICH ANY PARTICLE CANNOT MOVE MORE THAN ONE CELL
 =  5.450    (WHEN MIN. R.F.=1)  AT K=   4, I=   1, J=  49

 MAXIMUM STEPSIZE WHICH MEETS STABILITY CRITERION OF THE ADVECTION TERM
 (FOR PURE FINITE-DIFFERENCE OPTION, MIXELM=0) 
 =  3.775    (WHEN MIN. R.F.=1)  AT K=   2, I=   1, J=  43


 TOTAL NUMBER OF POINT SOURCES/SINKS PRESENT IN THE FLOW MODEL =    62

 MAXIMUM STEPSIZE WHICH MEETS STABILITY CRITERION OF THE SINK & SOURCE TERM
 =  578.0    (WHEN MIN. R.F.=1)  AT K=   2, I=   1, J=   1

 MAXIMUM STEPSIZE WHICH MEETS STABILITY CRITERION OF THE DISPERSION TERM
 =  20.29    (WHEN MIN. R.F.=1)  AT K=   1, I=   1, J=  31
     1 CALLS TO GCG PACKAGE FOR TRANSPORT TIME STEP   4 IN FLOW TIME STEP 215 STRESS PERIOD   1
     5 TOTAL ITERATIONS
  MAXIMUM CONCENTRATION CHANGES FOR EACH ITERATION:
  MAX. CHANGE LAYER,ROW,COL MAX. CHANGE LAYER,ROW,COL MAX. CHANGE LAYER,ROW,COL MAX. CHANGE LAYER,ROW,COL MAX. CHANGE LAYER,ROW,COL
 ------------------------------------------------------------------------------------------------------------------------------------
   0.2458E-01 (  2,  1, 83)  0.7651E-03 (  2,  1, 83)  0.2645E-04 (  2,  1, 84)  0.1147E-05 (  3,  1, 81)  0.4951E-07 (  4,  1, 81)


                                          ================================================
                                                         FROM TIME =   2150.0     TO    2160.0    

 
 SOLVING FOR HEAD 
 FLOW MODEL IS TRANSIENT
 FLOW MODEL CONTAINS CONSTANT-HEAD CELLS


 MAXIMUM STEPSIZE DURING WHICH ANY PARTICLE CANNOT MOVE MORE THAN ONE CELL
 =  5.475    (WHEN MIN. R.F.=1)  AT K=   4, I=   1, J=  49

 MAXIMUM STEPSIZE WHICH MEETS STABILITY CRITERION OF THE ADVECTION TERM
 (FOR PURE FINITE-DIFFERENCE OPTION, MIXELM=0) 
 =  3.908    (WHEN MIN. R.F.=1)  AT K=   2, I=   1, J=  44


 TOTAL NUMBER OF POINT SOURCES/SINKS PRESENT IN THE FLOW MODEL =    62

 MAXIMUM STEPSIZE WHICH MEETS STABILITY CRITERION OF THE SINK & SOURCE TERM
 =  634.5    (WHEN MIN. R.F.=1)  AT K=   2, I=   1, J=   1

 MAXIMUM STEPSIZE WHICH MEETS STABILITY CRITERION OF THE DISPERSION TERM
 =  20.29    (WHEN MIN. R.F.=1)  AT K=   1, I=   1, J=  31


     1 CALLS TO GCG PACKAGE FOR TRANSPORT TIME STEP   1 IN FLOW TIME STEP 216 STRESS PERIOD   1
     6 TOTAL ITERATIONS

 NO OUTPUT CONTROL FOR STRESS PERIOD    1   TIME STEP 216
 
 SOLVING FOR HEAD 
 FLOW MODEL IS TRANSIENT
 FLOW MODEL CONTAINS CONSTANT-HEAD CELLS


 MAXIMUM STEPSIZE DURING WHICH ANY PARTICLE CANNOT MOVE MORE THAN ONE CELL
 =  5.525    (WHEN MIN. R.F.=1)  AT K=   4, I=   1, J=  49

 MAXIMUM STEPSIZE WHICH MEETS STABILITY CRITERION OF THE ADVECTION TERM
 (FOR PURE FINITE-DIFFERENCE OPTION, MIXELM=0) 
 =  3.658    (WHEN MIN. R.F.=1)  AT K=   2, I=   1, J=  44


 TOTAL NUMBER OF POINT SOURCES/SINKS PRESENT IN THE FLOW MODEL =    62

 MAXIMUM STEPSIZE WHICH MEETS STABILITY CRITERION OF THE SINK & SOURCE TERM
 =  569.2    (WHEN MIN. R.F.=1)  AT K=   2, I=   1, J=   1

 MAXIMUM STEPSIZE WHICH MEETS STABILITY CRITERION OF THE DISPERSION TERM
 =  20.29    (WHEN MIN. R.F.=1)  AT K=   1, I=   1, J=  31
     1 CALLS TO GCG PACKAGE FOR TRANSPORT TIME STEP   2 IN FLOW TIME STEP 216 STRESS PERIOD   1
     6 TOTAL ITERATIONS
 
 SOLVING FOR HEAD 
 FLOW MODEL IS TRANSIENT
 FLOW MODEL CONTAINS CONSTANT-HEAD CELLS


 MAXIMUM STEPSIZE DURING WHICH ANY PARTICLE CANNOT MOVE MORE THAN ONE CELL
 =  5.593    (WHEN MIN. R.F.=1)  AT K=   4, I=   1, J=  49

 MAXIMUM STEPSIZE WHICH MEETS STABILITY CRITERION OF THE ADVECTION TERM
 (FOR PURE FINITE-DIFFERENCE OPTION, MIXELM=0) 
 =  3.583    (WHEN MIN. R.F.=1)  AT K=   2, I=   1, J=  44


 TOTAL NUMBER OF POINT SOURCES/SINKS PRESENT IN THE FLOW MODEL =    62

 MAXIMUM STEPSIZE WHICH MEETS STABILITY CRITERION OF THE SINK & SOURCE TERM
 =  533.7    (WHEN MIN. R.F.=1)  AT K=   2, I=   1, J= 120

 MAXIMUM STEPSIZE WHICH MEETS STABILITY CRITERION OF THE DISPERSION TERM
 =  20.29    (WHEN MIN. R.F.=1)  AT K=   1, I=   1, J=  31
     1 CALLS TO GCG PACKAGE FOR TRANSPORT TIME STEP   3 IN FLOW TIME STEP 216 STRESS PERIOD   1
     6 TOTAL ITERATIONS
 
 SOLVING FOR HEAD 
 FLOW MODEL IS TRANSIENT
 FLOW MODEL CONTAINS CONSTANT-HEAD CELLS


 MAXIMUM STEPSIZE DURING WHICH ANY PARTICLE CANNOT MOVE MORE THAN ONE CELL
 =  5.672    (WHEN MIN. R.F.=1)  AT K=   4, I=   1, J=  49

 MAXIMUM STEPSIZE WHICH MEETS STABILITY CRITERION OF THE ADVECTION TERM
 (FOR PURE FINITE-DIFFERENCE OPTION, MIXELM=0) 
 =  3.644    (WHEN MIN. R.F.=1)  AT K=   2, I=   1, J=  44


 TOTAL NUMBER OF POINT SOURCES/SINKS PRESENT IN THE FLOW MODEL =    62

 MAXIMUM STEPSIZE WHICH MEETS STABILITY CRITERION OF THE SINK & SOURCE TERM
 =  552.5    (WHEN MIN. R.F.=1)  AT K=   2, I=   1, J= 120

 MAXIMUM STEPSIZE WHICH MEETS STABILITY CRITERION OF THE DISPERSION TERM
 =  20.29    (WHEN MIN. R.F.=1)  AT K=   1, I=   1, J=  31
     1 CALLS TO GCG PACKAGE FOR TRANSPORT TIME STEP   4 IN FLOW TIME STEP 216 STRESS PERIOD   1
     5 TOTAL ITERATIONS
  MAXIMUM CONCENTRATION CHANGES FOR EACH ITERATION:
  MAX. CHANGE LAYER,ROW,COL MAX. CHANGE LAYER,ROW,COL MAX. CHANGE LAYER,ROW,COL MAX. CHANGE LAYER,ROW,COL MAX. CHANGE LAYER,ROW,COL
 ------------------------------------------------------------------------------------------------------------------------------------
   0.1831E-01 (  2,  1, 76)  0.4619E-03 (  2,  1, 82)  0.1316E-04 (  2,  1, 83)  0.3781E-06 (  3,  1, 83)  0.1219E-07 (  4,  1, 73)


                                          ================================================
                                                         FROM TIME =   2160.0     TO    2170.0    

 
 SOLVING FOR HEAD 
 FLOW MODEL IS TRANSIENT
 FLOW MODEL CONTAINS CONSTANT-HEAD CELLS


 MAXIMUM STEPSIZE DURING WHICH ANY PARTICLE CANNOT MOVE MORE THAN ONE CELL
 =  5.710    (WHEN MIN. R.F.=1)  AT K=   5, I=   1, J=  49

 MAXIMUM STEPSIZE WHICH MEETS STABILITY CRITERION OF THE ADVECTION TERM
 (FOR PURE FINITE-DIFFERENCE OPTION, MIXELM=0) 
 =  3.711    (WHEN MIN. R.F.=1)  AT K=   2, I=   1, J=  81


 TOTAL NUMBER OF POINT SOURCES/SINKS PRESENT IN THE FLOW MODEL =    62

 MAXIMUM STEPSIZE WHICH MEETS STABILITY CRITERION OF THE SINK & SOURCE TERM
 =  675.4    (WHEN MIN. R.F.=1)  AT K=   2, I=   1, J=   1

 MAXIMUM STEPSIZE WHICH MEETS STABILITY CRITERION OF THE DISPERSION TERM
 =  20.29    (WHEN MIN. R.F.=1)  AT K=   1, I=   1, J=  31


     1 CALLS TO GCG PACKAGE FOR TRANSPORT TIME STEP   1 IN FLOW TIME STEP 217 STRESS PERIOD   1
     6 TOTAL ITERATIONS

 NO OUTPUT CONTROL FOR STRESS PERIOD    1   TIME STEP 217
 
 SOLVING FOR HEAD 
 FLOW MODEL IS TRANSIENT
 FLOW MODEL CONTAINS CONSTANT-HEAD CELLS


 MAXIMUM STEPSIZE DURING WHICH ANY PARTICLE CANNOT MOVE MORE THAN ONE CELL
 =  5.748    (WHEN MIN. R.F.=1)  AT K=   4, I=   1, J=  60

 MAXIMUM STEPSIZE WHICH MEETS STABILITY CRITERION OF THE ADVECTION TERM
 (FOR PURE FINITE-DIFFERENCE OPTION, MIXELM=0) 
 =  3.765    (WHEN MIN. R.F.=1)  AT K=   2, I=   1, J=  81


 TOTAL NUMBER OF POINT SOURCES/SINKS PRESENT IN THE FLOW MODEL =    62

 MAXIMUM STEPSIZE WHICH MEETS STABILITY CRITERION OF THE SINK & SOURCE TERM
 =  596.3    (WHEN MIN. R.F.=1)  AT K=   2, I=   1, J=   1

 MAXIMUM STEPSIZE WHICH MEETS STABILITY CRITERION OF THE DISPERSION TERM
 =  20.29    (WHEN MIN. R.F.=1)  AT K=   1, I=   1, J=  31
     1 CALLS TO GCG PACKAGE FOR TRANSPORT TIME STEP   2 IN FLOW TIME STEP 217 STRESS PERIOD   1
     6 TOTAL ITERATIONS
 
 SOLVING FOR HEAD 
 FLOW MODEL IS TRANSIENT
 FLOW MODEL CONTAINS CONSTANT-HEAD CELLS


 MAXIMUM STEPSIZE DURING WHICH ANY PARTICLE CANNOT MOVE MORE THAN ONE CELL
 =  5.747    (WHEN MIN. R.F.=1)  AT K=   4, I=   1, J=  60

 MAXIMUM STEPSIZE WHICH MEETS STABILITY CRITERION OF THE ADVECTION TERM
 (FOR PURE FINITE-DIFFERENCE OPTION, MIXELM=0) 
 =  3.814    (WHEN MIN. R.F.=1)  AT K=   2, I=   1, J=  80


 TOTAL NUMBER OF POINT SOURCES/SINKS PRESENT IN THE FLOW MODEL =    62

 MAXIMUM STEPSIZE WHICH MEETS STABILITY CRITERION OF THE SINK & SOURCE TERM
 =  538.5    (WHEN MIN. R.F.=1)  AT K=   2, I=   1, J= 120

 MAXIMUM STEPSIZE WHICH MEETS STABILITY CRITERION OF THE DISPERSION TERM
 =  20.29    (WHEN MIN. R.F.=1)  AT K=   1, I=   1, J=  31
     1 CALLS TO GCG PACKAGE FOR TRANSPORT TIME STEP   3 IN FLOW TIME STEP 217 STRESS PERIOD   1
     6 TOTAL ITERATIONS
 
 SOLVING FOR HEAD 
 FLOW MODEL IS TRANSIENT
 FLOW MODEL CONTAINS CONSTANT-HEAD CELLS


 MAXIMUM STEPSIZE DURING WHICH ANY PARTICLE CANNOT MOVE MORE THAN ONE CELL
 =  5.695    (WHEN MIN. R.F.=1)  AT K=   4, I=   1, J=  73

 MAXIMUM STEPSIZE WHICH MEETS STABILITY CRITERION OF THE ADVECTION TERM
 (FOR PURE FINITE-DIFFERENCE OPTION, MIXELM=0) 
 =  3.483    (WHEN MIN. R.F.=1)  AT K=   2, I=   1, J=  80


 TOTAL NUMBER OF POINT SOURCES/SINKS PRESENT IN THE FLOW MODEL =    62

 MAXIMUM STEPSIZE WHICH MEETS STABILITY CRITERION OF THE SINK & SOURCE TERM
 =  492.4    (WHEN MIN. R.F.=1)  AT K=   2, I=   1, J= 120

 MAXIMUM STEPSIZE WHICH MEETS STABILITY CRITERION OF THE DISPERSION TERM
 =  20.29    (WHEN MIN. R.F.=1)  AT K=   1, I=   1, J=  31
     1 CALLS TO GCG PACKAGE FOR TRANSPORT TIME STEP   4 IN FLOW TIME STEP 217 STRESS PERIOD   1
     5 TOTAL ITERATIONS
  MAXIMUM CONCENTRATION CHANGES FOR EACH ITERATION:
  MAX. CHANGE LAYER,ROW,COL MAX. CHANGE LAYER,ROW,COL MAX. CHANGE LAYER,ROW,COL MAX. CHANGE LAYER,ROW,COL MAX. CHANGE LAYER,ROW,COL
 ------------------------------------------------------------------------------------------------------------------------------------
   0.1891E-01 (  2,  1, 31)  0.5075E-03 (  2,  1, 81)  0.1645E-04 (  3,  1, 47)  0.5788E-06 (  4,  1, 79)  0.2262E-07 (  3,  1, 49)


                                          ================================================
                                                         FROM TIME =   2170.0     TO    2180.0    

 
 SOLVING FOR HEAD 
 FLOW MODEL IS TRANSIENT
 FLOW MODEL CONTAINS CONSTANT-HEAD CELLS


 MAXIMUM STEPSIZE DURING WHICH ANY PARTICLE CANNOT MOVE MORE THAN ONE CELL
 =  5.530    (WHEN MIN. R.F.=1)  AT K=   4, I=   1, J=  73

 MAXIMUM STEPSIZE WHICH MEETS STABILITY CRITERION OF THE ADVECTION TERM
 (FOR PURE FINITE-DIFFERENCE OPTION, MIXELM=0) 
 =  3.419    (WHEN MIN. R.F.=1)  AT K=   2, I=   1, J=  80


 TOTAL NUMBER OF POINT SOURCES/SINKS PRESENT IN THE FLOW MODEL =    62

 MAXIMUM STEPSIZE WHICH MEETS STABILITY CRITERION OF THE SINK & SOURCE TERM
 =  586.6    (WHEN MIN. R.F.=1)  AT K=   2, I=   1, J= 120

 MAXIMUM STEPSIZE WHICH MEETS STABILITY CRITERION OF THE DISPERSION TERM
 =  20.29    (WHEN MIN. R.F.=1)  AT K=   1, I=   1, J=  31


     1 CALLS TO GCG PACKAGE FOR TRANSPORT TIME STEP   1 IN FLOW TIME STEP 218 STRESS PERIOD   1
     6 TOTAL ITERATIONS

 NO OUTPUT CONTROL FOR STRESS PERIOD    1   TIME STEP 218
 
 SOLVING FOR HEAD 
 FLOW MODEL IS TRANSIENT
 FLOW MODEL CONTAINS CONSTANT-HEAD CELLS


 MAXIMUM STEPSIZE DURING WHICH ANY PARTICLE CANNOT MOVE MORE THAN ONE CELL
 =  5.324    (WHEN MIN. R.F.=1)  AT K=   4, I=   1, J=  73

 MAXIMUM STEPSIZE WHICH MEETS STABILITY CRITERION OF THE ADVECTION TERM
 (FOR PURE FINITE-DIFFERENCE OPTION, MIXELM=0) 
 =  3.406    (WHEN MIN. R.F.=1)  AT K=   2, I=   1, J=  80


 TOTAL NUMBER OF POINT SOURCES/SINKS PRESENT IN THE FLOW MODEL =    62

 MAXIMUM STEPSIZE WHICH MEETS STABILITY CRITERION OF THE SINK & SOURCE TERM
 =  543.3    (WHEN MIN. R.F.=1)  AT K=   2, I=   1, J= 120

 MAXIMUM STEPSIZE WHICH MEETS STABILITY CRITERION OF THE DISPERSION TERM
 =  20.29    (WHEN MIN. R.F.=1)  AT K=   1, I=   1, J=  31
     1 CALLS TO GCG PACKAGE FOR TRANSPORT TIME STEP   2 IN FLOW TIME STEP 218 STRESS PERIOD   1
     6 TOTAL ITERATIONS
 
 SOLVING FOR HEAD 
 FLOW MODEL IS TRANSIENT
 FLOW MODEL CONTAINS CONSTANT-HEAD CELLS


 MAXIMUM STEPSIZE DURING WHICH ANY PARTICLE CANNOT MOVE MORE THAN ONE CELL
 =  5.173    (WHEN MIN. R.F.=1)  AT K=   4, I=   1, J=  73

 MAXIMUM STEPSIZE WHICH MEETS STABILITY CRITERION OF THE ADVECTION TERM
 (FOR PURE FINITE-DIFFERENCE OPTION, MIXELM=0) 
 =  3.615    (WHEN MIN. R.F.=1)  AT K=   2, I=   1, J=  80


 TOTAL NUMBER OF POINT SOURCES/SINKS PRESENT IN THE FLOW MODEL =    62

 MAXIMUM STEPSIZE WHICH MEETS STABILITY CRITERION OF THE SINK & SOURCE TERM
 =  570.1    (WHEN MIN. R.F.=1)  AT K=   2, I=   1, J= 120

 MAXIMUM STEPSIZE WHICH MEETS STABILITY CRITERION OF THE DISPERSION TERM
 =  20.29    (WHEN MIN. R.F.=1)  AT K=   1, I=   1, J=  31
     1 CALLS TO GCG PACKAGE FOR TRANSPORT TIME STEP   3 IN FLOW TIME STEP 218 STRESS PERIOD   1
     6 TOTAL ITERATIONS
 
 SOLVING FOR HEAD 
 FLOW MODEL IS TRANSIENT
 FLOW MODEL CONTAINS CONSTANT-HEAD CELLS


 MAXIMUM STEPSIZE DURING WHICH ANY PARTICLE CANNOT MOVE MORE THAN ONE CELL
 =  5.072    (WHEN MIN. R.F.=1)  AT K=   4, I=   1, J=  73

 MAXIMUM STEPSIZE WHICH MEETS STABILITY CRITERION OF THE ADVECTION TERM
 (FOR PURE FINITE-DIFFERENCE OPTION, MIXELM=0) 
 =  3.546    (WHEN MIN. R.F.=1)  AT K=   2, I=   1, J=  79


 TOTAL NUMBER OF POINT SOURCES/SINKS PRESENT IN THE FLOW MODEL =    62

 MAXIMUM STEPSIZE WHICH MEETS STABILITY CRITERION OF THE SINK & SOURCE TERM
 =  545.3    (WHEN MIN. R.F.=1)  AT K=   2, I=   1, J= 120

 MAXIMUM STEPSIZE WHICH MEETS STABILITY CRITERION OF THE DISPERSION TERM
 =  20.29    (WHEN MIN. R.F.=1)  AT K=   1, I=   1, J=  31
     1 CALLS TO GCG PACKAGE FOR TRANSPORT TIME STEP   4 IN FLOW TIME STEP 218 STRESS PERIOD   1
     5 TOTAL ITERATIONS
  MAXIMUM CONCENTRATION CHANGES FOR EACH ITERATION:
  MAX. CHANGE LAYER,ROW,COL MAX. CHANGE LAYER,ROW,COL MAX. CHANGE LAYER,ROW,COL MAX. CHANGE LAYER,ROW,COL MAX. CHANGE LAYER,ROW,COL
 ------------------------------------------------------------------------------------------------------------------------------------
   0.2851E-01 (  2,  1, 81)  0.1110E-02 (  2,  1, 79)  0.5465E-04 (  3,  1, 79)  0.2323E-05 (  4,  1, 79)  0.9604E-07 (  4,  1, 78)


                                          ================================================
                                                         FROM TIME =   2180.0     TO    2190.0    

 
 SOLVING FOR HEAD 
 FLOW MODEL IS TRANSIENT
 FLOW MODEL CONTAINS CONSTANT-HEAD CELLS


 MAXIMUM STEPSIZE DURING WHICH ANY PARTICLE CANNOT MOVE MORE THAN ONE CELL
 =  5.020    (WHEN MIN. R.F.=1)  AT K=   4, I=   1, J=  73

 MAXIMUM STEPSIZE WHICH MEETS STABILITY CRITERION OF THE ADVECTION TERM
 (FOR PURE FINITE-DIFFERENCE OPTION, MIXELM=0) 
 =  3.381    (WHEN MIN. R.F.=1)  AT K=   2, I=   1, J=  79


 TOTAL NUMBER OF POINT SOURCES/SINKS PRESENT IN THE FLOW MODEL =    62

 MAXIMUM STEPSIZE WHICH MEETS STABILITY CRITERION OF THE SINK & SOURCE TERM
 =  523.2    (WHEN MIN. R.F.=1)  AT K=   2, I=   1, J=   1

 MAXIMUM STEPSIZE WHICH MEETS STABILITY CRITERION OF THE DISPERSION TERM
 =  20.29    (WHEN MIN. R.F.=1)  AT K=   1, I=   1, J=  31


     1 CALLS TO GCG PACKAGE FOR TRANSPORT TIME STEP   1 IN FLOW TIME STEP 219 STRESS PERIOD   1
     6 TOTAL ITERATIONS

 NO OUTPUT CONTROL FOR STRESS PERIOD    1   TIME STEP 219
 
 SOLVING FOR HEAD 
 FLOW MODEL IS TRANSIENT
 FLOW MODEL CONTAINS CONSTANT-HEAD CELLS


 MAXIMUM STEPSIZE DURING WHICH ANY PARTICLE CANNOT MOVE MORE THAN ONE CELL
 =  5.004    (WHEN MIN. R.F.=1)  AT K=   4, I=   1, J=  73

 MAXIMUM STEPSIZE WHICH MEETS STABILITY CRITERION OF THE ADVECTION TERM
 (FOR PURE FINITE-DIFFERENCE OPTION, MIXELM=0) 
 =  3.318    (WHEN MIN. R.F.=1)  AT K=   2, I=   1, J=  79


 TOTAL NUMBER OF POINT SOURCES/SINKS PRESENT IN THE FLOW MODEL =    62

 MAXIMUM STEPSIZE WHICH MEETS STABILITY CRITERION OF THE SINK & SOURCE TERM
 =  510.7    (WHEN MIN. R.F.=1)  AT K=   2, I=   1, J=   1

 MAXIMUM STEPSIZE WHICH MEETS STABILITY CRITERION OF THE DISPERSION TERM
 =  20.29    (WHEN MIN. R.F.=1)  AT K=   1, I=   1, J=  31
     1 CALLS TO GCG PACKAGE FOR TRANSPORT TIME STEP   2 IN FLOW TIME STEP 219 STRESS PERIOD   1
     6 TOTAL ITERATIONS
 
 SOLVING FOR HEAD 
 FLOW MODEL IS TRANSIENT
 FLOW MODEL CONTAINS CONSTANT-HEAD CELLS


 MAXIMUM STEPSIZE DURING WHICH ANY PARTICLE CANNOT MOVE MORE THAN ONE CELL
 =  5.027    (WHEN MIN. R.F.=1)  AT K=   4, I=   1, J=  73

 MAXIMUM STEPSIZE WHICH MEETS STABILITY CRITERION OF THE ADVECTION TERM
 (FOR PURE FINITE-DIFFERENCE OPTION, MIXELM=0) 
 =  3.387    (WHEN MIN. R.F.=1)  AT K=   2, I=   1, J=  79


 TOTAL NUMBER OF POINT SOURCES/SINKS PRESENT IN THE FLOW MODEL =    62

 MAXIMUM STEPSIZE WHICH MEETS STABILITY CRITERION OF THE SINK & SOURCE TERM
 =  535.2    (WHEN MIN. R.F.=1)  AT K=   2, I=   1, J=   1

 MAXIMUM STEPSIZE WHICH MEETS STABILITY CRITERION OF THE DISPERSION TERM
 =  20.29    (WHEN MIN. R.F.=1)  AT K=   1, I=   1, J=  31
     1 CALLS TO GCG PACKAGE FOR TRANSPORT TIME STEP   3 IN FLOW TIME STEP 219 STRESS PERIOD   1
     6 TOTAL ITERATIONS
 
 SOLVING FOR HEAD 
 FLOW MODEL IS TRANSIENT
 FLOW MODEL CONTAINS CONSTANT-HEAD CELLS


 MAXIMUM STEPSIZE DURING WHICH ANY PARTICLE CANNOT MOVE MORE THAN ONE CELL
 =  5.084    (WHEN MIN. R.F.=1)  AT K=   4, I=   1, J=  73

 MAXIMUM STEPSIZE WHICH MEETS STABILITY CRITERION OF THE ADVECTION TERM
 (FOR PURE FINITE-DIFFERENCE OPTION, MIXELM=0) 
 =  3.647    (WHEN MIN. R.F.=1)  AT K=   2, I=   1, J=  79


 TOTAL NUMBER OF POINT SOURCES/SINKS PRESENT IN THE FLOW MODEL =    62

 MAXIMUM STEPSIZE WHICH MEETS STABILITY CRITERION OF THE SINK & SOURCE TERM
 =  556.9    (WHEN MIN. R.F.=1)  AT K=   2, I=   1, J=   1

 MAXIMUM STEPSIZE WHICH MEETS STABILITY CRITERION OF THE DISPERSION TERM
 =  20.29    (WHEN MIN. R.F.=1)  AT K=   1, I=   1, J=  31
     1 CALLS TO GCG PACKAGE FOR TRANSPORT TIME STEP   4 IN FLOW TIME STEP 219 STRESS PERIOD   1
     6 TOTAL ITERATIONS
  MAXIMUM CONCENTRATION CHANGES FOR EACH ITERATION:
  MAX. CHANGE LAYER,ROW,COL MAX. CHANGE LAYER,ROW,COL MAX. CHANGE LAYER,ROW,COL MAX. CHANGE LAYER,ROW,COL MAX. CHANGE LAYER,ROW,COL
 ------------------------------------------------------------------------------------------------------------------------------------
   0.2944E-01 (  2,  1, 80)  0.1251E-02 (  2,  1, 78)  0.6647E-04 (  3,  1, 78)  0.2695E-05 (  4,  1, 78)  0.1191E-06 (  4,  1, 79)
   0.6605E-08 (  3,  1, 81)


                                          ================================================
                                                         FROM TIME =   2190.0     TO    2200.0    

 
 SOLVING FOR HEAD 
 FLOW MODEL IS TRANSIENT
 FLOW MODEL CONTAINS CONSTANT-HEAD CELLS


 MAXIMUM STEPSIZE DURING WHICH ANY PARTICLE CANNOT MOVE MORE THAN ONE CELL
 =  5.144    (WHEN MIN. R.F.=1)  AT K=   5, I=   1, J=  73

 MAXIMUM STEPSIZE WHICH MEETS STABILITY CRITERION OF THE ADVECTION TERM
 (FOR PURE FINITE-DIFFERENCE OPTION, MIXELM=0) 
 =  3.647    (WHEN MIN. R.F.=1)  AT K=   2, I=   1, J=  78


 TOTAL NUMBER OF POINT SOURCES/SINKS PRESENT IN THE FLOW MODEL =    62

 MAXIMUM STEPSIZE WHICH MEETS STABILITY CRITERION OF THE SINK & SOURCE TERM
 =  583.3    (WHEN MIN. R.F.=1)  AT K=   2, I=   1, J=   1

 MAXIMUM STEPSIZE WHICH MEETS STABILITY CRITERION OF THE DISPERSION TERM
 =  20.29    (WHEN MIN. R.F.=1)  AT K=   1, I=   1, J=  31


     1 CALLS TO GCG PACKAGE FOR TRANSPORT TIME STEP   1 IN FLOW TIME STEP 220 STRESS PERIOD   1
     6 TOTAL ITERATIONS

 NO OUTPUT CONTROL FOR STRESS PERIOD    1   TIME STEP 220
 
 SOLVING FOR HEAD 
 FLOW MODEL IS TRANSIENT
 FLOW MODEL CONTAINS CONSTANT-HEAD CELLS


 MAXIMUM STEPSIZE DURING WHICH ANY PARTICLE CANNOT MOVE MORE THAN ONE CELL
 =  5.209    (WHEN MIN. R.F.=1)  AT K=   5, I=   1, J=  73

 MAXIMUM STEPSIZE WHICH MEETS STABILITY CRITERION OF THE ADVECTION TERM
 (FOR PURE FINITE-DIFFERENCE OPTION, MIXELM=0) 
 =  3.454    (WHEN MIN. R.F.=1)  AT K=   2, I=   1, J=  78


 TOTAL NUMBER OF POINT SOURCES/SINKS PRESENT IN THE FLOW MODEL =    62

 MAXIMUM STEPSIZE WHICH MEETS STABILITY CRITERION OF THE SINK & SOURCE TERM
 =  552.8    (WHEN MIN. R.F.=1)  AT K=   2, I=   1, J=   1

 MAXIMUM STEPSIZE WHICH MEETS STABILITY CRITERION OF THE DISPERSION TERM
 =  20.29    (WHEN MIN. R.F.=1)  AT K=   1, I=   1, J=  31
     1 CALLS TO GCG PACKAGE FOR TRANSPORT TIME STEP   2 IN FLOW TIME STEP 220 STRESS PERIOD   1
     6 TOTAL ITERATIONS
 
 SOLVING FOR HEAD 
 FLOW MODEL IS TRANSIENT
 FLOW MODEL CONTAINS CONSTANT-HEAD CELLS


 MAXIMUM STEPSIZE DURING WHICH ANY PARTICLE CANNOT MOVE MORE THAN ONE CELL
 =  5.310    (WHEN MIN. R.F.=1)  AT K=   5, I=   1, J=  73

 MAXIMUM STEPSIZE WHICH MEETS STABILITY CRITERION OF THE ADVECTION TERM
 (FOR PURE FINITE-DIFFERENCE OPTION, MIXELM=0) 
 =  3.411    (WHEN MIN. R.F.=1)  AT K=   2, I=   1, J=  78


 TOTAL NUMBER OF POINT SOURCES/SINKS PRESENT IN THE FLOW MODEL =    62

 MAXIMUM STEPSIZE WHICH MEETS STABILITY CRITERION OF THE SINK & SOURCE TERM
 =  518.7    (WHEN MIN. R.F.=1)  AT K=   2, I=   1, J=   1

 MAXIMUM STEPSIZE WHICH MEETS STABILITY CRITERION OF THE DISPERSION TERM
 =  20.29    (WHEN MIN. R.F.=1)  AT K=   1, I=   1, J=  31
     1 CALLS TO GCG PACKAGE FOR TRANSPORT TIME STEP   3 IN FLOW TIME STEP 220 STRESS PERIOD   1
     6 TOTAL ITERATIONS
 
 SOLVING FOR HEAD 
 FLOW MODEL IS TRANSIENT
 FLOW MODEL CONTAINS CONSTANT-HEAD CELLS


 MAXIMUM STEPSIZE DURING WHICH ANY PARTICLE CANNOT MOVE MORE THAN ONE CELL
 =  5.437    (WHEN MIN. R.F.=1)  AT K=   5, I=   1, J=  73

 MAXIMUM STEPSIZE WHICH MEETS STABILITY CRITERION OF THE ADVECTION TERM
 (FOR PURE FINITE-DIFFERENCE OPTION, MIXELM=0) 
 =  3.498    (WHEN MIN. R.F.=1)  AT K=   2, I=   1, J=  78


 TOTAL NUMBER OF POINT SOURCES/SINKS PRESENT IN THE FLOW MODEL =    62

 MAXIMUM STEPSIZE WHICH MEETS STABILITY CRITERION OF THE SINK & SOURCE TERM
 =  519.6    (WHEN MIN. R.F.=1)  AT K=   2, I=   1, J=   1

 MAXIMUM STEPSIZE WHICH MEETS STABILITY CRITERION OF THE DISPERSION TERM
 =  20.29    (WHEN MIN. R.F.=1)  AT K=   1, I=   1, J=  31
     1 CALLS TO GCG PACKAGE FOR TRANSPORT TIME STEP   4 IN FLOW TIME STEP 220 STRESS PERIOD   1
     5 TOTAL ITERATIONS
  MAXIMUM CONCENTRATION CHANGES FOR EACH ITERATION:
  MAX. CHANGE LAYER,ROW,COL MAX. CHANGE LAYER,ROW,COL MAX. CHANGE LAYER,ROW,COL MAX. CHANGE LAYER,ROW,COL MAX. CHANGE LAYER,ROW,COL
 ------------------------------------------------------------------------------------------------------------------------------------
   0.2698E-01 (  2,  1, 79)  0.6488E-03 (  2,  1, 79)  0.3087E-04 (  3,  1, 77)  0.1746E-05 (  3,  1, 75)  0.5077E-07 (  4,  1, 75)


                                          ================================================
                                                         FROM TIME =   2200.0     TO    2210.0    

 
 SOLVING FOR HEAD 
 FLOW MODEL IS TRANSIENT
 FLOW MODEL CONTAINS CONSTANT-HEAD CELLS


 MAXIMUM STEPSIZE DURING WHICH ANY PARTICLE CANNOT MOVE MORE THAN ONE CELL
 =  5.508    (WHEN MIN. R.F.=1)  AT K=   6, I=   1, J=  73

 MAXIMUM STEPSIZE WHICH MEETS STABILITY CRITERION OF THE ADVECTION TERM
 (FOR PURE FINITE-DIFFERENCE OPTION, MIXELM=0) 
 =  3.671    (WHEN MIN. R.F.=1)  AT K=   2, I=   1, J=  78


 TOTAL NUMBER OF POINT SOURCES/SINKS PRESENT IN THE FLOW MODEL =    62

 MAXIMUM STEPSIZE WHICH MEETS STABILITY CRITERION OF THE SINK & SOURCE TERM
 =  561.5    (WHEN MIN. R.F.=1)  AT K=   2, I=   1, J=   1

 MAXIMUM STEPSIZE WHICH MEETS STABILITY CRITERION OF THE DISPERSION TERM
 =  20.29    (WHEN MIN. R.F.=1)  AT K=   1, I=   1, J=  31


     1 CALLS TO GCG PACKAGE FOR TRANSPORT TIME STEP   1 IN FLOW TIME STEP 221 STRESS PERIOD   1
     6 TOTAL ITERATIONS

 NO OUTPUT CONTROL FOR STRESS PERIOD    1   TIME STEP 221
 
 SOLVING FOR HEAD 
 FLOW MODEL IS TRANSIENT
 FLOW MODEL CONTAINS CONSTANT-HEAD CELLS


 MAXIMUM STEPSIZE DURING WHICH ANY PARTICLE CANNOT MOVE MORE THAN ONE CELL
 =  5.621    (WHEN MIN. R.F.=1)  AT K=   6, I=   1, J=  73

 MAXIMUM STEPSIZE WHICH MEETS STABILITY CRITERION OF THE ADVECTION TERM
 (FOR PURE FINITE-DIFFERENCE OPTION, MIXELM=0) 
 =  3.845    (WHEN MIN. R.F.=1)  AT K=   2, I=   1, J=  77


 TOTAL NUMBER OF POINT SOURCES/SINKS PRESENT IN THE FLOW MODEL =    62

 MAXIMUM STEPSIZE WHICH MEETS STABILITY CRITERION OF THE SINK & SOURCE TERM
 =  510.4    (WHEN MIN. R.F.=1)  AT K=   2, I=   1, J=   1

 MAXIMUM STEPSIZE WHICH MEETS STABILITY CRITERION OF THE DISPERSION TERM
 =  20.29    (WHEN MIN. R.F.=1)  AT K=   1, I=   1, J=  31
     1 CALLS TO GCG PACKAGE FOR TRANSPORT TIME STEP   2 IN FLOW TIME STEP 221 STRESS PERIOD   1
     6 TOTAL ITERATIONS
 
 SOLVING FOR HEAD 
 FLOW MODEL IS TRANSIENT
 FLOW MODEL CONTAINS CONSTANT-HEAD CELLS


 MAXIMUM STEPSIZE DURING WHICH ANY PARTICLE CANNOT MOVE MORE THAN ONE CELL
 =  5.727    (WHEN MIN. R.F.=1)  AT K=   4, I=   1, J=  60

 MAXIMUM STEPSIZE WHICH MEETS STABILITY CRITERION OF THE ADVECTION TERM
 (FOR PURE FINITE-DIFFERENCE OPTION, MIXELM=0) 
 =  3.597    (WHEN MIN. R.F.=1)  AT K=   2, I=   1, J=  77


 TOTAL NUMBER OF POINT SOURCES/SINKS PRESENT IN THE FLOW MODEL =    62

 MAXIMUM STEPSIZE WHICH MEETS STABILITY CRITERION OF THE SINK & SOURCE TERM
 =  490.0    (WHEN MIN. R.F.=1)  AT K=   2, I=   1, J=   1

 MAXIMUM STEPSIZE WHICH MEETS STABILITY CRITERION OF THE DISPERSION TERM
 =  20.29    (WHEN MIN. R.F.=1)  AT K=   1, I=   1, J=  31
     1 CALLS TO GCG PACKAGE FOR TRANSPORT TIME STEP   3 IN FLOW TIME STEP 221 STRESS PERIOD   1
     6 TOTAL ITERATIONS
 
 SOLVING FOR HEAD 
 FLOW MODEL IS TRANSIENT
 FLOW MODEL CONTAINS CONSTANT-HEAD CELLS


 MAXIMUM STEPSIZE DURING WHICH ANY PARTICLE CANNOT MOVE MORE THAN ONE CELL
 =  5.724    (WHEN MIN. R.F.=1)  AT K=   4, I=   1, J=  60

 MAXIMUM STEPSIZE WHICH MEETS STABILITY CRITERION OF THE ADVECTION TERM
 (FOR PURE FINITE-DIFFERENCE OPTION, MIXELM=0) 
 =  3.499    (WHEN MIN. R.F.=1)  AT K=   2, I=   1, J=  77


 TOTAL NUMBER OF POINT SOURCES/SINKS PRESENT IN THE FLOW MODEL =    62

 MAXIMUM STEPSIZE WHICH MEETS STABILITY CRITERION OF THE SINK & SOURCE TERM
 =  460.4    (WHEN MIN. R.F.=1)  AT K=   2, I=   1, J=   1

 MAXIMUM STEPSIZE WHICH MEETS STABILITY CRITERION OF THE DISPERSION TERM
 =  20.29    (WHEN MIN. R.F.=1)  AT K=   1, I=   1, J=  31
     1 CALLS TO GCG PACKAGE FOR TRANSPORT TIME STEP   4 IN FLOW TIME STEP 221 STRESS PERIOD   1
     5 TOTAL ITERATIONS
  MAXIMUM CONCENTRATION CHANGES FOR EACH ITERATION:
  MAX. CHANGE LAYER,ROW,COL MAX. CHANGE LAYER,ROW,COL MAX. CHANGE LAYER,ROW,COL MAX. CHANGE LAYER,ROW,COL MAX. CHANGE LAYER,ROW,COL
 ------------------------------------------------------------------------------------------------------------------------------------
   0.2173E-01 (  2,  1, 78)  0.6111E-03 (  2,  1, 78)  0.2006E-04 (  3,  1, 42)  0.7444E-06 (  4,  1, 42)  0.2744E-07 (  3,  1, 80)


                                          ================================================
                                                         FROM TIME =   2210.0     TO    2220.0    

 
 SOLVING FOR HEAD 
 FLOW MODEL IS TRANSIENT
 FLOW MODEL CONTAINS CONSTANT-HEAD CELLS


 MAXIMUM STEPSIZE DURING WHICH ANY PARTICLE CANNOT MOVE MORE THAN ONE CELL
 =  5.725    (WHEN MIN. R.F.=1)  AT K=   4, I=   1, J=  60

 MAXIMUM STEPSIZE WHICH MEETS STABILITY CRITERION OF THE ADVECTION TERM
 (FOR PURE FINITE-DIFFERENCE OPTION, MIXELM=0) 
 =  3.515    (WHEN MIN. R.F.=1)  AT K=   2, I=   1, J=  77


 TOTAL NUMBER OF POINT SOURCES/SINKS PRESENT IN THE FLOW MODEL =    62

 MAXIMUM STEPSIZE WHICH MEETS STABILITY CRITERION OF THE SINK & SOURCE TERM
 =  520.6    (WHEN MIN. R.F.=1)  AT K=   2, I=   1, J=   1

 MAXIMUM STEPSIZE WHICH MEETS STABILITY CRITERION OF THE DISPERSION TERM
 =  20.29    (WHEN MIN. R.F.=1)  AT K=   1, I=   1, J=  31


     1 CALLS TO GCG PACKAGE FOR TRANSPORT TIME STEP   1 IN FLOW TIME STEP 222 STRESS PERIOD   1
     6 TOTAL ITERATIONS

 NO OUTPUT CONTROL FOR STRESS PERIOD    1   TIME STEP 222
 
 SOLVING FOR HEAD 
 FLOW MODEL IS TRANSIENT
 FLOW MODEL CONTAINS CONSTANT-HEAD CELLS


 MAXIMUM STEPSIZE DURING WHICH ANY PARTICLE CANNOT MOVE MORE THAN ONE CELL
 =  5.724    (WHEN MIN. R.F.=1)  AT K=   4, I=   1, J=  60

 MAXIMUM STEPSIZE WHICH MEETS STABILITY CRITERION OF THE ADVECTION TERM
 (FOR PURE FINITE-DIFFERENCE OPTION, MIXELM=0) 
 =  3.583    (WHEN MIN. R.F.=1)  AT K=   2, I=   1, J=  41


 TOTAL NUMBER OF POINT SOURCES/SINKS PRESENT IN THE FLOW MODEL =    62

 MAXIMUM STEPSIZE WHICH MEETS STABILITY CRITERION OF THE SINK & SOURCE TERM
 =  500.8    (WHEN MIN. R.F.=1)  AT K=   2, I=   1, J=   1

 MAXIMUM STEPSIZE WHICH MEETS STABILITY CRITERION OF THE DISPERSION TERM
 =  20.29    (WHEN MIN. R.F.=1)  AT K=   1, I=   1, J=  31
     1 CALLS TO GCG PACKAGE FOR TRANSPORT TIME STEP   2 IN FLOW TIME STEP 222 STRESS PERIOD   1
     6 TOTAL ITERATIONS
 
 SOLVING FOR HEAD 
 FLOW MODEL IS TRANSIENT
 FLOW MODEL CONTAINS CONSTANT-HEAD CELLS


 MAXIMUM STEPSIZE DURING WHICH ANY PARTICLE CANNOT MOVE MORE THAN ONE CELL
 =  5.722    (WHEN MIN. R.F.=1)  AT K=   4, I=   1, J=  60

 MAXIMUM STEPSIZE WHICH MEETS STABILITY CRITERION OF THE ADVECTION TERM
 (FOR PURE FINITE-DIFFERENCE OPTION, MIXELM=0) 
 =  3.823    (WHEN MIN. R.F.=1)  AT K=   2, I=   1, J=  41


 TOTAL NUMBER OF POINT SOURCES/SINKS PRESENT IN THE FLOW MODEL =    62

 MAXIMUM STEPSIZE WHICH MEETS STABILITY CRITERION OF THE SINK & SOURCE TERM
 =  490.0    (WHEN MIN. R.F.=1)  AT K=   2, I=   1, J=   1

 MAXIMUM STEPSIZE WHICH MEETS STABILITY CRITERION OF THE DISPERSION TERM
 =  20.29    (WHEN MIN. R.F.=1)  AT K=   1, I=   1, J=  31
     1 CALLS TO GCG PACKAGE FOR TRANSPORT TIME STEP   3 IN FLOW TIME STEP 222 STRESS PERIOD   1
     6 TOTAL ITERATIONS
 
 SOLVING FOR HEAD 
 FLOW MODEL IS TRANSIENT
 FLOW MODEL CONTAINS CONSTANT-HEAD CELLS


 MAXIMUM STEPSIZE DURING WHICH ANY PARTICLE CANNOT MOVE MORE THAN ONE CELL
 =  5.721    (WHEN MIN. R.F.=1)  AT K=   4, I=   1, J=  60

 MAXIMUM STEPSIZE WHICH MEETS STABILITY CRITERION OF THE ADVECTION TERM
 (FOR PURE FINITE-DIFFERENCE OPTION, MIXELM=0) 
 =  3.623    (WHEN MIN. R.F.=1)  AT K=   2, I=   1, J=  42


 TOTAL NUMBER OF POINT SOURCES/SINKS PRESENT IN THE FLOW MODEL =    62

 MAXIMUM STEPSIZE WHICH MEETS STABILITY CRITERION OF THE SINK & SOURCE TERM
 =  456.5    (WHEN MIN. R.F.=1)  AT K=   2, I=   1, J=   1

 MAXIMUM STEPSIZE WHICH MEETS STABILITY CRITERION OF THE DISPERSION TERM
 =  20.29    (WHEN MIN. R.F.=1)  AT K=   1, I=   1, J=  31
     1 CALLS TO GCG PACKAGE FOR TRANSPORT TIME STEP   4 IN FLOW TIME STEP 222 STRESS PERIOD   1
     5 TOTAL ITERATIONS
  MAXIMUM CONCENTRATION CHANGES FOR EACH ITERATION:
  MAX. CHANGE LAYER,ROW,COL MAX. CHANGE LAYER,ROW,COL MAX. CHANGE LAYER,ROW,COL MAX. CHANGE LAYER,ROW,COL MAX. CHANGE LAYER,ROW,COL
 ------------------------------------------------------------------------------------------------------------------------------------
   0.2412E-01 (  2,  1, 40)  0.9703E-03 (  2,  1, 76)  0.3664E-04 (  3,  1, 76)  0.1362E-05 (  3,  1, 45)  0.5357E-07 (  4,  1, 45)


                                          ================================================
                                                         FROM TIME =   2220.0     TO    2230.0    

 
 SOLVING FOR HEAD 
 FLOW MODEL IS TRANSIENT
 FLOW MODEL CONTAINS CONSTANT-HEAD CELLS


 MAXIMUM STEPSIZE DURING WHICH ANY PARTICLE CANNOT MOVE MORE THAN ONE CELL
 =  5.721    (WHEN MIN. R.F.=1)  AT K=   4, I=   1, J=  60

 MAXIMUM STEPSIZE WHICH MEETS STABILITY CRITERION OF THE ADVECTION TERM
 (FOR PURE FINITE-DIFFERENCE OPTION, MIXELM=0) 
 =  3.518    (WHEN MIN. R.F.=1)  AT K=   2, I=   1, J=  42


 TOTAL NUMBER OF POINT SOURCES/SINKS PRESENT IN THE FLOW MODEL =    62

 MAXIMUM STEPSIZE WHICH MEETS STABILITY CRITERION OF THE SINK & SOURCE TERM
 =  474.9    (WHEN MIN. R.F.=1)  AT K=   2, I=   1, J=   1

 MAXIMUM STEPSIZE WHICH MEETS STABILITY CRITERION OF THE DISPERSION TERM
 =  20.29    (WHEN MIN. R.F.=1)  AT K=   1, I=   1, J=  31


     1 CALLS TO GCG PACKAGE FOR TRANSPORT TIME STEP   1 IN FLOW TIME STEP 223 STRESS PERIOD   1
     6 TOTAL ITERATIONS

 NO OUTPUT CONTROL FOR STRESS PERIOD    1   TIME STEP 223
 
 SOLVING FOR HEAD 
 FLOW MODEL IS TRANSIENT
 FLOW MODEL CONTAINS CONSTANT-HEAD CELLS


 MAXIMUM STEPSIZE DURING WHICH ANY PARTICLE CANNOT MOVE MORE THAN ONE CELL
 =  5.719    (WHEN MIN. R.F.=1)  AT K=   4, I=   1, J=  60

 MAXIMUM STEPSIZE WHICH MEETS STABILITY CRITERION OF THE ADVECTION TERM
 (FOR PURE FINITE-DIFFERENCE OPTION, MIXELM=0) 
 =  3.502    (WHEN MIN. R.F.=1)  AT K=   2, I=   1, J=  42


 TOTAL NUMBER OF POINT SOURCES/SINKS PRESENT IN THE FLOW MODEL =    62

 MAXIMUM STEPSIZE WHICH MEETS STABILITY CRITERION OF THE SINK & SOURCE TERM
 =  475.4    (WHEN MIN. R.F.=1)  AT K=   2, I=   1, J=   1

 MAXIMUM STEPSIZE WHICH MEETS STABILITY CRITERION OF THE DISPERSION TERM
 =  20.29    (WHEN MIN. R.F.=1)  AT K=   1, I=   1, J=  31
     1 CALLS TO GCG PACKAGE FOR TRANSPORT TIME STEP   2 IN FLOW TIME STEP 223 STRESS PERIOD   1
     6 TOTAL ITERATIONS
 
 SOLVING FOR HEAD 
 FLOW MODEL IS TRANSIENT
 FLOW MODEL CONTAINS CONSTANT-HEAD CELLS


 MAXIMUM STEPSIZE DURING WHICH ANY PARTICLE CANNOT MOVE MORE THAN ONE CELL
 =  5.717    (WHEN MIN. R.F.=1)  AT K=   4, I=   1, J=  60

 MAXIMUM STEPSIZE WHICH MEETS STABILITY CRITERION OF THE ADVECTION TERM
 (FOR PURE FINITE-DIFFERENCE OPTION, MIXELM=0) 
 =  3.598    (WHEN MIN. R.F.=1)  AT K=   2, I=   1, J=  42


 TOTAL NUMBER OF POINT SOURCES/SINKS PRESENT IN THE FLOW MODEL =    62

 MAXIMUM STEPSIZE WHICH MEETS STABILITY CRITERION OF THE SINK & SOURCE TERM
 =  534.1    (WHEN MIN. R.F.=1)  AT K=   2, I=   1, J=   1

 MAXIMUM STEPSIZE WHICH MEETS STABILITY CRITERION OF THE DISPERSION TERM
 =  20.29    (WHEN MIN. R.F.=1)  AT K=   1, I=   1, J=  31
     1 CALLS TO GCG PACKAGE FOR TRANSPORT TIME STEP   3 IN FLOW TIME STEP 223 STRESS PERIOD   1
     6 TOTAL ITERATIONS
 
 SOLVING FOR HEAD 
 FLOW MODEL IS TRANSIENT
 FLOW MODEL CONTAINS CONSTANT-HEAD CELLS


 MAXIMUM STEPSIZE DURING WHICH ANY PARTICLE CANNOT MOVE MORE THAN ONE CELL
 =  5.715    (WHEN MIN. R.F.=1)  AT K=   4, I=   1, J=  60

 MAXIMUM STEPSIZE WHICH MEETS STABILITY CRITERION OF THE ADVECTION TERM
 (FOR PURE FINITE-DIFFERENCE OPTION, MIXELM=0) 
 =  3.864    (WHEN MIN. R.F.=1)  AT K=   2, I=   1, J=  76


 TOTAL NUMBER OF POINT SOURCES/SINKS PRESENT IN THE FLOW MODEL =    62

 MAXIMUM STEPSIZE WHICH MEETS STABILITY CRITERION OF THE SINK & SOURCE TERM
 =  544.5    (WHEN MIN. R.F.=1)  AT K=   2, I=   1, J=   1

 MAXIMUM STEPSIZE WHICH MEETS STABILITY CRITERION OF THE DISPERSION TERM
 =  20.29    (WHEN MIN. R.F.=1)  AT K=   1, I=   1, J=  31
     1 CALLS TO GCG PACKAGE FOR TRANSPORT TIME STEP   4 IN FLOW TIME STEP 223 STRESS PERIOD   1
     5 TOTAL ITERATIONS
  MAXIMUM CONCENTRATION CHANGES FOR EACH ITERATION:
  MAX. CHANGE LAYER,ROW,COL MAX. CHANGE LAYER,ROW,COL MAX. CHANGE LAYER,ROW,COL MAX. CHANGE LAYER,ROW,COL MAX. CHANGE LAYER,ROW,COL
 ------------------------------------------------------------------------------------------------------------------------------------
   0.2737E-01 (  2,  1, 77)  0.7081E-03 (  2,  1, 74)  0.3107E-04 (  2,  1, 78)  0.1445E-05 (  3,  1, 78)  0.5576E-07 (  4,  1, 46)


                                          ================================================
                                                         FROM TIME =   2230.0     TO    2240.0    

 
 SOLVING FOR HEAD 
 FLOW MODEL IS TRANSIENT
 FLOW MODEL CONTAINS CONSTANT-HEAD CELLS


 MAXIMUM STEPSIZE DURING WHICH ANY PARTICLE CANNOT MOVE MORE THAN ONE CELL
 =  5.716    (WHEN MIN. R.F.=1)  AT K=   4, I=   1, J=  60

 MAXIMUM STEPSIZE WHICH MEETS STABILITY CRITERION OF THE ADVECTION TERM
 (FOR PURE FINITE-DIFFERENCE OPTION, MIXELM=0) 
 =  3.739    (WHEN MIN. R.F.=1)  AT K=   2, I=   1, J=  43


 TOTAL NUMBER OF POINT SOURCES/SINKS PRESENT IN THE FLOW MODEL =    62

 MAXIMUM STEPSIZE WHICH MEETS STABILITY CRITERION OF THE SINK & SOURCE TERM
 =  539.6    (WHEN MIN. R.F.=1)  AT K=   2, I=   1, J=   1

 MAXIMUM STEPSIZE WHICH MEETS STABILITY CRITERION OF THE DISPERSION TERM
 =  20.29    (WHEN MIN. R.F.=1)  AT K=   1, I=   1, J=  31


     1 CALLS TO GCG PACKAGE FOR TRANSPORT TIME STEP   1 IN FLOW TIME STEP 224 STRESS PERIOD   1
     6 TOTAL ITERATIONS

 NO OUTPUT CONTROL FOR STRESS PERIOD    1   TIME STEP 224
 
 SOLVING FOR HEAD 
 FLOW MODEL IS TRANSIENT
 FLOW MODEL CONTAINS CONSTANT-HEAD CELLS


 MAXIMUM STEPSIZE DURING WHICH ANY PARTICLE CANNOT MOVE MORE THAN ONE CELL
 =  5.712    (WHEN MIN. R.F.=1)  AT K=   4, I=   1, J=  60

 MAXIMUM STEPSIZE WHICH MEETS STABILITY CRITERION OF THE ADVECTION TERM
 (FOR PURE FINITE-DIFFERENCE OPTION, MIXELM=0) 
 =  3.565    (WHEN MIN. R.F.=1)  AT K=   2, I=   1, J=  43


 TOTAL NUMBER OF POINT SOURCES/SINKS PRESENT IN THE FLOW MODEL =    62

 MAXIMUM STEPSIZE WHICH MEETS STABILITY CRITERION OF THE SINK & SOURCE TERM
 =  484.2    (WHEN MIN. R.F.=1)  AT K=   2, I=   1, J=   1

 MAXIMUM STEPSIZE WHICH MEETS STABILITY CRITERION OF THE DISPERSION TERM
 =  20.29    (WHEN MIN. R.F.=1)  AT K=   1, I=   1, J=  31
     1 CALLS TO GCG PACKAGE FOR TRANSPORT TIME STEP   2 IN FLOW TIME STEP 224 STRESS PERIOD   1
     6 TOTAL ITERATIONS
 
 SOLVING FOR HEAD 
 FLOW MODEL IS TRANSIENT
 FLOW MODEL CONTAINS CONSTANT-HEAD CELLS


 MAXIMUM STEPSIZE DURING WHICH ANY PARTICLE CANNOT MOVE MORE THAN ONE CELL
 =  5.709    (WHEN MIN. R.F.=1)  AT K=   4, I=   1, J=  60

 MAXIMUM STEPSIZE WHICH MEETS STABILITY CRITERION OF THE ADVECTION TERM
 (FOR PURE FINITE-DIFFERENCE OPTION, MIXELM=0) 
 =  3.560    (WHEN MIN. R.F.=1)  AT K=   2, I=   1, J=  43


 TOTAL NUMBER OF POINT SOURCES/SINKS PRESENT IN THE FLOW MODEL =    62

 MAXIMUM STEPSIZE WHICH MEETS STABILITY CRITERION OF THE SINK & SOURCE TERM
 =  491.8    (WHEN MIN. R.F.=1)  AT K=   2, I=   1, J=   1

 MAXIMUM STEPSIZE WHICH MEETS STABILITY CRITERION OF THE DISPERSION TERM
 =  20.29    (WHEN MIN. R.F.=1)  AT K=   1, I=   1, J=  31
     1 CALLS TO GCG PACKAGE FOR TRANSPORT TIME STEP   3 IN FLOW TIME STEP 224 STRESS PERIOD   1
     6 TOTAL ITERATIONS
 
 SOLVING FOR HEAD 
 FLOW MODEL IS TRANSIENT
 FLOW MODEL CONTAINS CONSTANT-HEAD CELLS


 MAXIMUM STEPSIZE DURING WHICH ANY PARTICLE CANNOT MOVE MORE THAN ONE CELL
 =  5.708    (WHEN MIN. R.F.=1)  AT K=   4, I=   1, J=  60

 MAXIMUM STEPSIZE WHICH MEETS STABILITY CRITERION OF THE ADVECTION TERM
 (FOR PURE FINITE-DIFFERENCE OPTION, MIXELM=0) 
 =  3.671    (WHEN MIN. R.F.=1)  AT K=   2, I=   1, J=  43


 TOTAL NUMBER OF POINT SOURCES/SINKS PRESENT IN THE FLOW MODEL =    62

 MAXIMUM STEPSIZE WHICH MEETS STABILITY CRITERION OF THE SINK & SOURCE TERM
 =  508.9    (WHEN MIN. R.F.=1)  AT K=   2, I=   1, J=   1

 MAXIMUM STEPSIZE WHICH MEETS STABILITY CRITERION OF THE DISPERSION TERM
 =  20.29    (WHEN MIN. R.F.=1)  AT K=   1, I=   1, J=  31
     1 CALLS TO GCG PACKAGE FOR TRANSPORT TIME STEP   4 IN FLOW TIME STEP 224 STRESS PERIOD   1
     5 TOTAL ITERATIONS
  MAXIMUM CONCENTRATION CHANGES FOR EACH ITERATION:
  MAX. CHANGE LAYER,ROW,COL MAX. CHANGE LAYER,ROW,COL MAX. CHANGE LAYER,ROW,COL MAX. CHANGE LAYER,ROW,COL MAX. CHANGE LAYER,ROW,COL
 ------------------------------------------------------------------------------------------------------------------------------------
   0.2177E-01 (  2,  1, 83)  0.5621E-03 (  2,  1, 83)  0.1691E-04 (  2,  1, 84)  0.6087E-06 (  3,  1, 46)  0.1968E-07 (  4,  1, 81)


                                          ================================================
                                                         FROM TIME =   2240.0     TO    2250.0    

 
 SOLVING FOR HEAD 
 FLOW MODEL IS TRANSIENT
 FLOW MODEL CONTAINS CONSTANT-HEAD CELLS


 MAXIMUM STEPSIZE DURING WHICH ANY PARTICLE CANNOT MOVE MORE THAN ONE CELL
 =  5.709    (WHEN MIN. R.F.=1)  AT K=   4, I=   1, J=  60

 MAXIMUM STEPSIZE WHICH MEETS STABILITY CRITERION OF THE ADVECTION TERM
 (FOR PURE FINITE-DIFFERENCE OPTION, MIXELM=0) 
 =  3.833    (WHEN MIN. R.F.=1)  AT K=   2, I=   1, J=  43


 TOTAL NUMBER OF POINT SOURCES/SINKS PRESENT IN THE FLOW MODEL =    62

 MAXIMUM STEPSIZE WHICH MEETS STABILITY CRITERION OF THE SINK & SOURCE TERM
 =  581.9    (WHEN MIN. R.F.=1)  AT K=   2, I=   1, J=   1

 MAXIMUM STEPSIZE WHICH MEETS STABILITY CRITERION OF THE DISPERSION TERM
 =  20.29    (WHEN MIN. R.F.=1)  AT K=   1, I=   1, J=  31


     1 CALLS TO GCG PACKAGE FOR TRANSPORT TIME STEP   1 IN FLOW TIME STEP 225 STRESS PERIOD   1
     6 TOTAL ITERATIONS

 NO OUTPUT CONTROL FOR STRESS PERIOD    1   TIME STEP 225
 
 SOLVING FOR HEAD 
 FLOW MODEL IS TRANSIENT
 FLOW MODEL CONTAINS CONSTANT-HEAD CELLS


 MAXIMUM STEPSIZE DURING WHICH ANY PARTICLE CANNOT MOVE MORE THAN ONE CELL
 =  5.707    (WHEN MIN. R.F.=1)  AT K=   4, I=   1, J=  60

 MAXIMUM STEPSIZE WHICH MEETS STABILITY CRITERION OF THE ADVECTION TERM
 (FOR PURE FINITE-DIFFERENCE OPTION, MIXELM=0) 
 =  3.851    (WHEN MIN. R.F.=1)  AT K=   2, I=   1, J=  44


 TOTAL NUMBER OF POINT SOURCES/SINKS PRESENT IN THE FLOW MODEL =    62

 MAXIMUM STEPSIZE WHICH MEETS STABILITY CRITERION OF THE SINK & SOURCE TERM
 =  502.7    (WHEN MIN. R.F.=1)  AT K=   2, I=   1, J=   1

 MAXIMUM STEPSIZE WHICH MEETS STABILITY CRITERION OF THE DISPERSION TERM
 =  20.29    (WHEN MIN. R.F.=1)  AT K=   1, I=   1, J=  31
     1 CALLS TO GCG PACKAGE FOR TRANSPORT TIME STEP   2 IN FLOW TIME STEP 225 STRESS PERIOD   1
     6 TOTAL ITERATIONS
 
 SOLVING FOR HEAD 
 FLOW MODEL IS TRANSIENT
 FLOW MODEL CONTAINS CONSTANT-HEAD CELLS


 MAXIMUM STEPSIZE DURING WHICH ANY PARTICLE CANNOT MOVE MORE THAN ONE CELL
 =  5.704    (WHEN MIN. R.F.=1)  AT K=   4, I=   1, J=  60

 MAXIMUM STEPSIZE WHICH MEETS STABILITY CRITERION OF THE ADVECTION TERM
 (FOR PURE FINITE-DIFFERENCE OPTION, MIXELM=0) 
 =  3.661    (WHEN MIN. R.F.=1)  AT K=   2, I=   1, J=  44


 TOTAL NUMBER OF POINT SOURCES/SINKS PRESENT IN THE FLOW MODEL =    62

 MAXIMUM STEPSIZE WHICH MEETS STABILITY CRITERION OF THE SINK & SOURCE TERM
 =  464.8    (WHEN MIN. R.F.=1)  AT K=   2, I=   1, J=   1

 MAXIMUM STEPSIZE WHICH MEETS STABILITY CRITERION OF THE DISPERSION TERM
 =  20.29    (WHEN MIN. R.F.=1)  AT K=   1, I=   1, J=  31
     1 CALLS TO GCG PACKAGE FOR TRANSPORT TIME STEP   3 IN FLOW TIME STEP 225 STRESS PERIOD   1
     6 TOTAL ITERATIONS
 
 SOLVING FOR HEAD 
 FLOW MODEL IS TRANSIENT
 FLOW MODEL CONTAINS CONSTANT-HEAD CELLS


 MAXIMUM STEPSIZE DURING WHICH ANY PARTICLE CANNOT MOVE MORE THAN ONE CELL
 =  5.702    (WHEN MIN. R.F.=1)  AT K=   4, I=   1, J=  60

 MAXIMUM STEPSIZE WHICH MEETS STABILITY CRITERION OF THE ADVECTION TERM
 (FOR PURE FINITE-DIFFERENCE OPTION, MIXELM=0) 
 =  3.635    (WHEN MIN. R.F.=1)  AT K=   2, I=   1, J=  44


 TOTAL NUMBER OF POINT SOURCES/SINKS PRESENT IN THE FLOW MODEL =    62

 MAXIMUM STEPSIZE WHICH MEETS STABILITY CRITERION OF THE SINK & SOURCE TERM
 =  447.9    (WHEN MIN. R.F.=1)  AT K=   2, I=   1, J=   1

 MAXIMUM STEPSIZE WHICH MEETS STABILITY CRITERION OF THE DISPERSION TERM
 =  20.29    (WHEN MIN. R.F.=1)  AT K=   1, I=   1, J=  31
     1 CALLS TO GCG PACKAGE FOR TRANSPORT TIME STEP   4 IN FLOW TIME STEP 225 STRESS PERIOD   1
     5 TOTAL ITERATIONS
  MAXIMUM CONCENTRATION CHANGES FOR EACH ITERATION:
  MAX. CHANGE LAYER,ROW,COL MAX. CHANGE LAYER,ROW,COL MAX. CHANGE LAYER,ROW,COL MAX. CHANGE LAYER,ROW,COL MAX. CHANGE LAYER,ROW,COL
 ------------------------------------------------------------------------------------------------------------------------------------
   0.1867E-01 (  2,  1, 82)  0.4915E-03 (  2,  1, 82)  0.1444E-04 (  2,  1, 83)  0.4208E-06 (  3,  1, 83)  0.1146E-07 (  4,  1, 73)


                                          ================================================
                                                         FROM TIME =   2250.0     TO    2260.0    

 
 SOLVING FOR HEAD 
 FLOW MODEL IS TRANSIENT
 FLOW MODEL CONTAINS CONSTANT-HEAD CELLS


 MAXIMUM STEPSIZE DURING WHICH ANY PARTICLE CANNOT MOVE MORE THAN ONE CELL
 =  5.704    (WHEN MIN. R.F.=1)  AT K=   4, I=   1, J=  60

 MAXIMUM STEPSIZE WHICH MEETS STABILITY CRITERION OF THE ADVECTION TERM
 (FOR PURE FINITE-DIFFERENCE OPTION, MIXELM=0) 
 =  3.669    (WHEN MIN. R.F.=1)  AT K=   2, I=   1, J=  81


 TOTAL NUMBER OF POINT SOURCES/SINKS PRESENT IN THE FLOW MODEL =    62

 MAXIMUM STEPSIZE WHICH MEETS STABILITY CRITERION OF THE SINK & SOURCE TERM
 =  536.3    (WHEN MIN. R.F.=1)  AT K=   2, I=   1, J=   1

 MAXIMUM STEPSIZE WHICH MEETS STABILITY CRITERION OF THE DISPERSION TERM
 =  20.29    (WHEN MIN. R.F.=1)  AT K=   1, I=   1, J=  31


     1 CALLS TO GCG PACKAGE FOR TRANSPORT TIME STEP   1 IN FLOW TIME STEP 226 STRESS PERIOD   1
     6 TOTAL ITERATIONS

 NO OUTPUT CONTROL FOR STRESS PERIOD    1   TIME STEP 226
 
 SOLVING FOR HEAD 
 FLOW MODEL IS TRANSIENT
 FLOW MODEL CONTAINS CONSTANT-HEAD CELLS


 MAXIMUM STEPSIZE DURING WHICH ANY PARTICLE CANNOT MOVE MORE THAN ONE CELL
 =  5.703    (WHEN MIN. R.F.=1)  AT K=   4, I=   1, J=  60

 MAXIMUM STEPSIZE WHICH MEETS STABILITY CRITERION OF THE ADVECTION TERM
 (FOR PURE FINITE-DIFFERENCE OPTION, MIXELM=0) 
 =  3.786    (WHEN MIN. R.F.=1)  AT K=   2, I=   1, J=  81


 TOTAL NUMBER OF POINT SOURCES/SINKS PRESENT IN THE FLOW MODEL =    62

 MAXIMUM STEPSIZE WHICH MEETS STABILITY CRITERION OF THE SINK & SOURCE TERM
 =  493.5    (WHEN MIN. R.F.=1)  AT K=   2, I=   1, J=   1

 MAXIMUM STEPSIZE WHICH MEETS STABILITY CRITERION OF THE DISPERSION TERM
 =  20.29    (WHEN MIN. R.F.=1)  AT K=   1, I=   1, J=  31
     1 CALLS TO GCG PACKAGE FOR TRANSPORT TIME STEP   2 IN FLOW TIME STEP 226 STRESS PERIOD   1
     6 TOTAL ITERATIONS



 >>>>>>>>>>>>>>>>>>>>>>>>>>>>>>>>>>>>>>>>>>>>>>>>>>>>>>>FOR COMPONENT NO. 01<<<<<<<<<<<<<<<<<<<<<<<<<<<<<<<<<<<<<<<<<<<<<<<<<<<<<<<


                                            -------------------------------------------
                                                      TRANSPORT STEP NO.    2
                                            -------------------------------------------

 TOTAL ELAPSED TIME SINCE BEGINNING OF SIMULATION =   2255.200    D   
 .....................................................................

                     CUMULATIVE MASS BUDGETS AT END OF TRANSPORT STEP    2, TIME STEP  226, STRESS PERIOD    1
                     ------------------------------------------------------------------------------------------

                                                             IN                           OUT
                                                      ----------------             ----------------
                               CONSTANT CONCENTRATION:    1581873.                   -695729.7    
                                        CONSTANT HEAD:    0.000000                  -0.1087660E-01
                               MASS STOR (FLOW MODEL):    175.6738                   -332.7918    
                                MASS STORAGE (SOLUTE):    2331277.                   -3217263.    
                            ---------------------------------------------------------------------------
                                              [TOTAL]:    3913325.     KG            -3913325.     KG  

                                                          NET (IN - OUT):   0.3691796E-02
                                                   DISCREPANCY (PERCENT):   0.9433911E-07
 
 SOLVING FOR HEAD 
 FLOW MODEL IS TRANSIENT
 FLOW MODEL CONTAINS CONSTANT-HEAD CELLS


 MAXIMUM STEPSIZE DURING WHICH ANY PARTICLE CANNOT MOVE MORE THAN ONE CELL
 =  5.702    (WHEN MIN. R.F.=1)  AT K=   4, I=   1, J=  60

 MAXIMUM STEPSIZE WHICH MEETS STABILITY CRITERION OF THE ADVECTION TERM
 (FOR PURE FINITE-DIFFERENCE OPTION, MIXELM=0) 
 =  3.773    (WHEN MIN. R.F.=1)  AT K=   2, I=   1, J=  80


 TOTAL NUMBER OF POINT SOURCES/SINKS PRESENT IN THE FLOW MODEL =    62

 MAXIMUM STEPSIZE WHICH MEETS STABILITY CRITERION OF THE SINK & SOURCE TERM
 =  471.5    (WHEN MIN. R.F.=1)  AT K=   2, I=   1, J=   1

 MAXIMUM STEPSIZE WHICH MEETS STABILITY CRITERION OF THE DISPERSION TERM
 =  20.29    (WHEN MIN. R.F.=1)  AT K=   1, I=   1, J=  31
     1 CALLS TO GCG PACKAGE FOR TRANSPORT TIME STEP   3 IN FLOW TIME STEP 226 STRESS PERIOD   1
     6 TOTAL ITERATIONS
 
 SOLVING FOR HEAD 
 FLOW MODEL IS TRANSIENT
 FLOW MODEL CONTAINS CONSTANT-HEAD CELLS


 MAXIMUM STEPSIZE DURING WHICH ANY PARTICLE CANNOT MOVE MORE THAN ONE CELL
 =  5.682    (WHEN MIN. R.F.=1)  AT K=   4, I=   1, J=  73

 MAXIMUM STEPSIZE WHICH MEETS STABILITY CRITERION OF THE ADVECTION TERM
 (FOR PURE FINITE-DIFFERENCE OPTION, MIXELM=0) 
 =  3.481    (WHEN MIN. R.F.=1)  AT K=   2, I=   1, J=  80


 TOTAL NUMBER OF POINT SOURCES/SINKS PRESENT IN THE FLOW MODEL =    62

 MAXIMUM STEPSIZE WHICH MEETS STABILITY CRITERION OF THE SINK & SOURCE TERM
 =  438.0    (WHEN MIN. R.F.=1)  AT K=   2, I=   1, J=   1

 MAXIMUM STEPSIZE WHICH MEETS STABILITY CRITERION OF THE DISPERSION TERM
 =  20.29    (WHEN MIN. R.F.=1)  AT K=   1, I=   1, J=  31
     1 CALLS TO GCG PACKAGE FOR TRANSPORT TIME STEP   4 IN FLOW TIME STEP 226 STRESS PERIOD   1
     5 TOTAL ITERATIONS
  MAXIMUM CONCENTRATION CHANGES FOR EACH ITERATION:
  MAX. CHANGE LAYER,ROW,COL MAX. CHANGE LAYER,ROW,COL MAX. CHANGE LAYER,ROW,COL MAX. CHANGE LAYER,ROW,COL MAX. CHANGE LAYER,ROW,COL
 ------------------------------------------------------------------------------------------------------------------------------------
   0.2262E-01 (  2,  1, 81)  0.7362E-03 (  2,  1, 81)  0.2785E-04 (  3,  1, 79)  0.1093E-05 (  3,  1, 77)  0.4295E-07 (  4,  1, 73)


                                          ================================================
                                                         FROM TIME =   2260.0     TO    2270.0    

 
 SOLVING FOR HEAD 
 FLOW MODEL IS TRANSIENT
 FLOW MODEL CONTAINS CONSTANT-HEAD CELLS


 MAXIMUM STEPSIZE DURING WHICH ANY PARTICLE CANNOT MOVE MORE THAN ONE CELL
 =  5.511    (WHEN MIN. R.F.=1)  AT K=   4, I=   1, J=  73

 MAXIMUM STEPSIZE WHICH MEETS STABILITY CRITERION OF THE ADVECTION TERM
 (FOR PURE FINITE-DIFFERENCE OPTION, MIXELM=0) 
 =  3.422    (WHEN MIN. R.F.=1)  AT K=   2, I=   1, J=  80


 TOTAL NUMBER OF POINT SOURCES/SINKS PRESENT IN THE FLOW MODEL =    62

 MAXIMUM STEPSIZE WHICH MEETS STABILITY CRITERION OF THE SINK & SOURCE TERM
 =  458.2    (WHEN MIN. R.F.=1)  AT K=   2, I=   1, J=   1

 MAXIMUM STEPSIZE WHICH MEETS STABILITY CRITERION OF THE DISPERSION TERM
 =  20.29    (WHEN MIN. R.F.=1)  AT K=   1, I=   1, J=  31


     1 CALLS TO GCG PACKAGE FOR TRANSPORT TIME STEP   1 IN FLOW TIME STEP 227 STRESS PERIOD   1
     6 TOTAL ITERATIONS

 NO OUTPUT CONTROL FOR STRESS PERIOD    1   TIME STEP 227
 
 SOLVING FOR HEAD 
 FLOW MODEL IS TRANSIENT
 FLOW MODEL CONTAINS CONSTANT-HEAD CELLS


 MAXIMUM STEPSIZE DURING WHICH ANY PARTICLE CANNOT MOVE MORE THAN ONE CELL
 =  5.332    (WHEN MIN. R.F.=1)  AT K=   4, I=   1, J=  73

 MAXIMUM STEPSIZE WHICH MEETS STABILITY CRITERION OF THE ADVECTION TERM
 (FOR PURE FINITE-DIFFERENCE OPTION, MIXELM=0) 
 =  3.442    (WHEN MIN. R.F.=1)  AT K=   2, I=   1, J=  80


 TOTAL NUMBER OF POINT SOURCES/SINKS PRESENT IN THE FLOW MODEL =    62

 MAXIMUM STEPSIZE WHICH MEETS STABILITY CRITERION OF THE SINK & SOURCE TERM
 =  440.4    (WHEN MIN. R.F.=1)  AT K=   2, I=   1, J=   1

 MAXIMUM STEPSIZE WHICH MEETS STABILITY CRITERION OF THE DISPERSION TERM
 =  20.29    (WHEN MIN. R.F.=1)  AT K=   1, I=   1, J=  31
     1 CALLS TO GCG PACKAGE FOR TRANSPORT TIME STEP   2 IN FLOW TIME STEP 227 STRESS PERIOD   1
     6 TOTAL ITERATIONS
 
 SOLVING FOR HEAD 
 FLOW MODEL IS TRANSIENT
 FLOW MODEL CONTAINS CONSTANT-HEAD CELLS


 MAXIMUM STEPSIZE DURING WHICH ANY PARTICLE CANNOT MOVE MORE THAN ONE CELL
 =  5.201    (WHEN MIN. R.F.=1)  AT K=   4, I=   1, J=  73

 MAXIMUM STEPSIZE WHICH MEETS STABILITY CRITERION OF THE ADVECTION TERM
 (FOR PURE FINITE-DIFFERENCE OPTION, MIXELM=0) 
 =  3.697    (WHEN MIN. R.F.=1)  AT K=   2, I=   1, J=  80


 TOTAL NUMBER OF POINT SOURCES/SINKS PRESENT IN THE FLOW MODEL =    62

 MAXIMUM STEPSIZE WHICH MEETS STABILITY CRITERION OF THE SINK & SOURCE TERM
 =  458.5    (WHEN MIN. R.F.=1)  AT K=   2, I=   1, J=   1

 MAXIMUM STEPSIZE WHICH MEETS STABILITY CRITERION OF THE DISPERSION TERM
 =  20.29    (WHEN MIN. R.F.=1)  AT K=   1, I=   1, J=  31
     1 CALLS TO GCG PACKAGE FOR TRANSPORT TIME STEP   3 IN FLOW TIME STEP 227 STRESS PERIOD   1
     6 TOTAL ITERATIONS
 
 SOLVING FOR HEAD 
 FLOW MODEL IS TRANSIENT
 FLOW MODEL CONTAINS CONSTANT-HEAD CELLS


 MAXIMUM STEPSIZE DURING WHICH ANY PARTICLE CANNOT MOVE MORE THAN ONE CELL
 =  5.112    (WHEN MIN. R.F.=1)  AT K=   4, I=   1, J=  73

 MAXIMUM STEPSIZE WHICH MEETS STABILITY CRITERION OF THE ADVECTION TERM
 (FOR PURE FINITE-DIFFERENCE OPTION, MIXELM=0) 
 =  3.529    (WHEN MIN. R.F.=1)  AT K=   2, I=   1, J=  79


 TOTAL NUMBER OF POINT SOURCES/SINKS PRESENT IN THE FLOW MODEL =    62

 MAXIMUM STEPSIZE WHICH MEETS STABILITY CRITERION OF THE SINK & SOURCE TERM
 =  452.3    (WHEN MIN. R.F.=1)  AT K=   2, I=   1, J=   1

 MAXIMUM STEPSIZE WHICH MEETS STABILITY CRITERION OF THE DISPERSION TERM
 =  20.29    (WHEN MIN. R.F.=1)  AT K=   1, I=   1, J=  31
     1 CALLS TO GCG PACKAGE FOR TRANSPORT TIME STEP   4 IN FLOW TIME STEP 227 STRESS PERIOD   1
     5 TOTAL ITERATIONS
  MAXIMUM CONCENTRATION CHANGES FOR EACH ITERATION:
  MAX. CHANGE LAYER,ROW,COL MAX. CHANGE LAYER,ROW,COL MAX. CHANGE LAYER,ROW,COL MAX. CHANGE LAYER,ROW,COL MAX. CHANGE LAYER,ROW,COL
 ------------------------------------------------------------------------------------------------------------------------------------
   0.2724E-01 (  2,  1, 81)  0.1073E-02 (  2,  1, 79)  0.4783E-04 (  3,  1, 79)  0.2280E-05 (  3,  1, 76)  0.9641E-07 (  4,  1, 76)


                                          ================================================
                                                         FROM TIME =   2270.0     TO    2280.0    

 
 SOLVING FOR HEAD 
 FLOW MODEL IS TRANSIENT
 FLOW MODEL CONTAINS CONSTANT-HEAD CELLS


 MAXIMUM STEPSIZE DURING WHICH ANY PARTICLE CANNOT MOVE MORE THAN ONE CELL
 =  5.069    (WHEN MIN. R.F.=1)  AT K=   4, I=   1, J=  73

 MAXIMUM STEPSIZE WHICH MEETS STABILITY CRITERION OF THE ADVECTION TERM
 (FOR PURE FINITE-DIFFERENCE OPTION, MIXELM=0) 
 =  3.395    (WHEN MIN. R.F.=1)  AT K=   2, I=   1, J=  79


 TOTAL NUMBER OF POINT SOURCES/SINKS PRESENT IN THE FLOW MODEL =    62

 MAXIMUM STEPSIZE WHICH MEETS STABILITY CRITERION OF THE SINK & SOURCE TERM
 =  450.7    (WHEN MIN. R.F.=1)  AT K=   2, I=   1, J=   1

 MAXIMUM STEPSIZE WHICH MEETS STABILITY CRITERION OF THE DISPERSION TERM
 =  20.29    (WHEN MIN. R.F.=1)  AT K=   1, I=   1, J=  31


     1 CALLS TO GCG PACKAGE FOR TRANSPORT TIME STEP   1 IN FLOW TIME STEP 228 STRESS PERIOD   1
     6 TOTAL ITERATIONS

 NO OUTPUT CONTROL FOR STRESS PERIOD    1   TIME STEP 228
 
 SOLVING FOR HEAD 
 FLOW MODEL IS TRANSIENT
 FLOW MODEL CONTAINS CONSTANT-HEAD CELLS


 MAXIMUM STEPSIZE DURING WHICH ANY PARTICLE CANNOT MOVE MORE THAN ONE CELL
 =  5.053    (WHEN MIN. R.F.=1)  AT K=   4, I=   1, J=  73

 MAXIMUM STEPSIZE WHICH MEETS STABILITY CRITERION OF THE ADVECTION TERM
 (FOR PURE FINITE-DIFFERENCE OPTION, MIXELM=0) 
 =  3.354    (WHEN MIN. R.F.=1)  AT K=   2, I=   1, J=  79


 TOTAL NUMBER OF POINT SOURCES/SINKS PRESENT IN THE FLOW MODEL =    62

 MAXIMUM STEPSIZE WHICH MEETS STABILITY CRITERION OF THE SINK & SOURCE TERM
 =  430.4    (WHEN MIN. R.F.=1)  AT K=   2, I=   1, J=   1

 MAXIMUM STEPSIZE WHICH MEETS STABILITY CRITERION OF THE DISPERSION TERM
 =  20.29    (WHEN MIN. R.F.=1)  AT K=   1, I=   1, J=  31
     1 CALLS TO GCG PACKAGE FOR TRANSPORT TIME STEP   2 IN FLOW TIME STEP 228 STRESS PERIOD   1
     6 TOTAL ITERATIONS
 
 SOLVING FOR HEAD 
 FLOW MODEL IS TRANSIENT
 FLOW MODEL CONTAINS CONSTANT-HEAD CELLS


 MAXIMUM STEPSIZE DURING WHICH ANY PARTICLE CANNOT MOVE MORE THAN ONE CELL
 =  5.073    (WHEN MIN. R.F.=1)  AT K=   4, I=   1, J=  73

 MAXIMUM STEPSIZE WHICH MEETS STABILITY CRITERION OF THE ADVECTION TERM
 (FOR PURE FINITE-DIFFERENCE OPTION, MIXELM=0) 
 =  3.441    (WHEN MIN. R.F.=1)  AT K=   2, I=   1, J=  79


 TOTAL NUMBER OF POINT SOURCES/SINKS PRESENT IN THE FLOW MODEL =    62

 MAXIMUM STEPSIZE WHICH MEETS STABILITY CRITERION OF THE SINK & SOURCE TERM
 =  425.0    (WHEN MIN. R.F.=1)  AT K=   2, I=   1, J=   1

 MAXIMUM STEPSIZE WHICH MEETS STABILITY CRITERION OF THE DISPERSION TERM
 =  20.29    (WHEN MIN. R.F.=1)  AT K=   1, I=   1, J=  31
     1 CALLS TO GCG PACKAGE FOR TRANSPORT TIME STEP   3 IN FLOW TIME STEP 228 STRESS PERIOD   1
     6 TOTAL ITERATIONS
 
 SOLVING FOR HEAD 
 FLOW MODEL IS TRANSIENT
 FLOW MODEL CONTAINS CONSTANT-HEAD CELLS


 MAXIMUM STEPSIZE DURING WHICH ANY PARTICLE CANNOT MOVE MORE THAN ONE CELL
 =  5.126    (WHEN MIN. R.F.=1)  AT K=   4, I=   1, J=  73

 MAXIMUM STEPSIZE WHICH MEETS STABILITY CRITERION OF THE ADVECTION TERM
 (FOR PURE FINITE-DIFFERENCE OPTION, MIXELM=0) 
 =  3.726    (WHEN MIN. R.F.=1)  AT K=   2, I=   1, J=  79


 TOTAL NUMBER OF POINT SOURCES/SINKS PRESENT IN THE FLOW MODEL =    62

 MAXIMUM STEPSIZE WHICH MEETS STABILITY CRITERION OF THE SINK & SOURCE TERM
 =  439.4    (WHEN MIN. R.F.=1)  AT K=   2, I=   1, J=   1

 MAXIMUM STEPSIZE WHICH MEETS STABILITY CRITERION OF THE DISPERSION TERM
 =  20.29    (WHEN MIN. R.F.=1)  AT K=   1, I=   1, J=  31
     1 CALLS TO GCG PACKAGE FOR TRANSPORT TIME STEP   4 IN FLOW TIME STEP 228 STRESS PERIOD   1
     6 TOTAL ITERATIONS
  MAXIMUM CONCENTRATION CHANGES FOR EACH ITERATION:
  MAX. CHANGE LAYER,ROW,COL MAX. CHANGE LAYER,ROW,COL MAX. CHANGE LAYER,ROW,COL MAX. CHANGE LAYER,ROW,COL MAX. CHANGE LAYER,ROW,COL
 ------------------------------------------------------------------------------------------------------------------------------------
   0.2926E-01 (  2,  1, 80)  0.1211E-02 (  2,  1, 78)  0.6224E-04 (  3,  1, 78)  0.2378E-05 (  4,  1, 78)  0.1104E-06 (  4,  1, 79)
   0.6187E-08 (  3,  1, 81)


                                          ================================================
                                                         FROM TIME =   2280.0     TO    2290.0    

 
 SOLVING FOR HEAD 
 FLOW MODEL IS TRANSIENT
 FLOW MODEL CONTAINS CONSTANT-HEAD CELLS


 MAXIMUM STEPSIZE DURING WHICH ANY PARTICLE CANNOT MOVE MORE THAN ONE CELL
 =  5.187    (WHEN MIN. R.F.=1)  AT K=   5, I=   1, J=  73

 MAXIMUM STEPSIZE WHICH MEETS STABILITY CRITERION OF THE ADVECTION TERM
 (FOR PURE FINITE-DIFFERENCE OPTION, MIXELM=0) 
 =  3.663    (WHEN MIN. R.F.=1)  AT K=   2, I=   1, J=  78


 TOTAL NUMBER OF POINT SOURCES/SINKS PRESENT IN THE FLOW MODEL =    62

 MAXIMUM STEPSIZE WHICH MEETS STABILITY CRITERION OF THE SINK & SOURCE TERM
 =  475.2    (WHEN MIN. R.F.=1)  AT K=   2, I=   1, J=   1

 MAXIMUM STEPSIZE WHICH MEETS STABILITY CRITERION OF THE DISPERSION TERM
 =  20.29    (WHEN MIN. R.F.=1)  AT K=   1, I=   1, J=  31


     1 CALLS TO GCG PACKAGE FOR TRANSPORT TIME STEP   1 IN FLOW TIME STEP 229 STRESS PERIOD   1
     6 TOTAL ITERATIONS

 NO OUTPUT CONTROL FOR STRESS PERIOD    1   TIME STEP 229
 
 SOLVING FOR HEAD 
 FLOW MODEL IS TRANSIENT
 FLOW MODEL CONTAINS CONSTANT-HEAD CELLS


 MAXIMUM STEPSIZE DURING WHICH ANY PARTICLE CANNOT MOVE MORE THAN ONE CELL
 =  5.246    (WHEN MIN. R.F.=1)  AT K=   5, I=   1, J=  73

 MAXIMUM STEPSIZE WHICH MEETS STABILITY CRITERION OF THE ADVECTION TERM
 (FOR PURE FINITE-DIFFERENCE OPTION, MIXELM=0) 
 =  3.473    (WHEN MIN. R.F.=1)  AT K=   2, I=   1, J=  78


 TOTAL NUMBER OF POINT SOURCES/SINKS PRESENT IN THE FLOW MODEL =    62

 MAXIMUM STEPSIZE WHICH MEETS STABILITY CRITERION OF THE SINK & SOURCE TERM
 =  463.6    (WHEN MIN. R.F.=1)  AT K=   2, I=   1, J=   1

 MAXIMUM STEPSIZE WHICH MEETS STABILITY CRITERION OF THE DISPERSION TERM
 =  20.29    (WHEN MIN. R.F.=1)  AT K=   1, I=   1, J=  31
     1 CALLS TO GCG PACKAGE FOR TRANSPORT TIME STEP   2 IN FLOW TIME STEP 229 STRESS PERIOD   1
     6 TOTAL ITERATIONS
 
 SOLVING FOR HEAD 
 FLOW MODEL IS TRANSIENT
 FLOW MODEL CONTAINS CONSTANT-HEAD CELLS


 MAXIMUM STEPSIZE DURING WHICH ANY PARTICLE CANNOT MOVE MORE THAN ONE CELL
 =  5.335    (WHEN MIN. R.F.=1)  AT K=   5, I=   1, J=  73

 MAXIMUM STEPSIZE WHICH MEETS STABILITY CRITERION OF THE ADVECTION TERM
 (FOR PURE FINITE-DIFFERENCE OPTION, MIXELM=0) 
 =  3.444    (WHEN MIN. R.F.=1)  AT K=   2, I=   1, J=  78


 TOTAL NUMBER OF POINT SOURCES/SINKS PRESENT IN THE FLOW MODEL =    62

 MAXIMUM STEPSIZE WHICH MEETS STABILITY CRITERION OF THE SINK & SOURCE TERM
 =  455.1    (WHEN MIN. R.F.=1)  AT K=   2, I=   1, J=   1

 MAXIMUM STEPSIZE WHICH MEETS STABILITY CRITERION OF THE DISPERSION TERM
 =  20.29    (WHEN MIN. R.F.=1)  AT K=   1, I=   1, J=  31
     1 CALLS TO GCG PACKAGE FOR TRANSPORT TIME STEP   3 IN FLOW TIME STEP 229 STRESS PERIOD   1
     6 TOTAL ITERATIONS
 
 SOLVING FOR HEAD 
 FLOW MODEL IS TRANSIENT
 FLOW MODEL CONTAINS CONSTANT-HEAD CELLS


 MAXIMUM STEPSIZE DURING WHICH ANY PARTICLE CANNOT MOVE MORE THAN ONE CELL
 =  5.448    (WHEN MIN. R.F.=1)  AT K=   5, I=   1, J=  73

 MAXIMUM STEPSIZE WHICH MEETS STABILITY CRITERION OF THE ADVECTION TERM
 (FOR PURE FINITE-DIFFERENCE OPTION, MIXELM=0) 
 =  3.543    (WHEN MIN. R.F.=1)  AT K=   2, I=   1, J=  78


 TOTAL NUMBER OF POINT SOURCES/SINKS PRESENT IN THE FLOW MODEL =    62

 MAXIMUM STEPSIZE WHICH MEETS STABILITY CRITERION OF THE SINK & SOURCE TERM
 =  445.3    (WHEN MIN. R.F.=1)  AT K=   2, I=   1, J=   1

 MAXIMUM STEPSIZE WHICH MEETS STABILITY CRITERION OF THE DISPERSION TERM
 =  20.29    (WHEN MIN. R.F.=1)  AT K=   1, I=   1, J=  31
     1 CALLS TO GCG PACKAGE FOR TRANSPORT TIME STEP   4 IN FLOW TIME STEP 229 STRESS PERIOD   1
     5 TOTAL ITERATIONS
  MAXIMUM CONCENTRATION CHANGES FOR EACH ITERATION:
  MAX. CHANGE LAYER,ROW,COL MAX. CHANGE LAYER,ROW,COL MAX. CHANGE LAYER,ROW,COL MAX. CHANGE LAYER,ROW,COL MAX. CHANGE LAYER,ROW,COL
 ------------------------------------------------------------------------------------------------------------------------------------
   0.2567E-01 (  2,  1, 79)  0.6079E-03 (  2,  1, 77)  0.2719E-04 (  3,  1, 77)  0.1396E-05 (  3,  1, 75)  0.3627E-07 (  4,  1, 75)


                                          ================================================
                                                         FROM TIME =   2290.0     TO    2300.0    

 
 SOLVING FOR HEAD 
 FLOW MODEL IS TRANSIENT
 FLOW MODEL CONTAINS CONSTANT-HEAD CELLS


 MAXIMUM STEPSIZE DURING WHICH ANY PARTICLE CANNOT MOVE MORE THAN ONE CELL
 =  5.526    (WHEN MIN. R.F.=1)  AT K=   6, I=   1, J=  73

 MAXIMUM STEPSIZE WHICH MEETS STABILITY CRITERION OF THE ADVECTION TERM
 (FOR PURE FINITE-DIFFERENCE OPTION, MIXELM=0) 
 =  3.723    (WHEN MIN. R.F.=1)  AT K=   2, I=   1, J=  78


 TOTAL NUMBER OF POINT SOURCES/SINKS PRESENT IN THE FLOW MODEL =    62

 MAXIMUM STEPSIZE WHICH MEETS STABILITY CRITERION OF THE SINK & SOURCE TERM
 =  461.6    (WHEN MIN. R.F.=1)  AT K=   2, I=   1, J=   1

 MAXIMUM STEPSIZE WHICH MEETS STABILITY CRITERION OF THE DISPERSION TERM
 =  20.29    (WHEN MIN. R.F.=1)  AT K=   1, I=   1, J=  31


     1 CALLS TO GCG PACKAGE FOR TRANSPORT TIME STEP   1 IN FLOW TIME STEP 230 STRESS PERIOD   1
     6 TOTAL ITERATIONS

 NO OUTPUT CONTROL FOR STRESS PERIOD    1   TIME STEP 230
 
 SOLVING FOR HEAD 
 FLOW MODEL IS TRANSIENT
 FLOW MODEL CONTAINS CONSTANT-HEAD CELLS


 MAXIMUM STEPSIZE DURING WHICH ANY PARTICLE CANNOT MOVE MORE THAN ONE CELL
 =  5.625    (WHEN MIN. R.F.=1)  AT K=   6, I=   1, J=  73

 MAXIMUM STEPSIZE WHICH MEETS STABILITY CRITERION OF THE ADVECTION TERM
 (FOR PURE FINITE-DIFFERENCE OPTION, MIXELM=0) 
 =  3.839    (WHEN MIN. R.F.=1)  AT K=   2, I=   1, J=  40


 TOTAL NUMBER OF POINT SOURCES/SINKS PRESENT IN THE FLOW MODEL =    62

 MAXIMUM STEPSIZE WHICH MEETS STABILITY CRITERION OF THE SINK & SOURCE TERM
 =  436.9    (WHEN MIN. R.F.=1)  AT K=   2, I=   1, J=   1

 MAXIMUM STEPSIZE WHICH MEETS STABILITY CRITERION OF THE DISPERSION TERM
 =  20.29    (WHEN MIN. R.F.=1)  AT K=   1, I=   1, J=  31
     1 CALLS TO GCG PACKAGE FOR TRANSPORT TIME STEP   2 IN FLOW TIME STEP 230 STRESS PERIOD   1
     6 TOTAL ITERATIONS
 
 SOLVING FOR HEAD 
 FLOW MODEL IS TRANSIENT
 FLOW MODEL CONTAINS CONSTANT-HEAD CELLS


 MAXIMUM STEPSIZE DURING WHICH ANY PARTICLE CANNOT MOVE MORE THAN ONE CELL
 =  5.677    (WHEN MIN. R.F.=1)  AT K=   4, I=   1, J=  60

 MAXIMUM STEPSIZE WHICH MEETS STABILITY CRITERION OF THE ADVECTION TERM
 (FOR PURE FINITE-DIFFERENCE OPTION, MIXELM=0) 
 =  3.615    (WHEN MIN. R.F.=1)  AT K=   2, I=   1, J=  77


 TOTAL NUMBER OF POINT SOURCES/SINKS PRESENT IN THE FLOW MODEL =    62

 MAXIMUM STEPSIZE WHICH MEETS STABILITY CRITERION OF THE SINK & SOURCE TERM
 =  428.8    (WHEN MIN. R.F.=1)  AT K=   2, I=   1, J=   1

 MAXIMUM STEPSIZE WHICH MEETS STABILITY CRITERION OF THE DISPERSION TERM
 =  20.29    (WHEN MIN. R.F.=1)  AT K=   1, I=   1, J=  31
     1 CALLS TO GCG PACKAGE FOR TRANSPORT TIME STEP   3 IN FLOW TIME STEP 230 STRESS PERIOD   1
     6 TOTAL ITERATIONS
 
 SOLVING FOR HEAD 
 FLOW MODEL IS TRANSIENT
 FLOW MODEL CONTAINS CONSTANT-HEAD CELLS


 MAXIMUM STEPSIZE DURING WHICH ANY PARTICLE CANNOT MOVE MORE THAN ONE CELL
 =  5.674    (WHEN MIN. R.F.=1)  AT K=   4, I=   1, J=  60

 MAXIMUM STEPSIZE WHICH MEETS STABILITY CRITERION OF THE ADVECTION TERM
 (FOR PURE FINITE-DIFFERENCE OPTION, MIXELM=0) 
 =  3.532    (WHEN MIN. R.F.=1)  AT K=   2, I=   1, J=  77


 TOTAL NUMBER OF POINT SOURCES/SINKS PRESENT IN THE FLOW MODEL =    62

 MAXIMUM STEPSIZE WHICH MEETS STABILITY CRITERION OF THE SINK & SOURCE TERM
 =  419.9    (WHEN MIN. R.F.=1)  AT K=   2, I=   1, J=   1

 MAXIMUM STEPSIZE WHICH MEETS STABILITY CRITERION OF THE DISPERSION TERM
 =  20.29    (WHEN MIN. R.F.=1)  AT K=   1, I=   1, J=  31
     1 CALLS TO GCG PACKAGE FOR TRANSPORT TIME STEP   4 IN FLOW TIME STEP 230 STRESS PERIOD   1
     5 TOTAL ITERATIONS
  MAXIMUM CONCENTRATION CHANGES FOR EACH ITERATION:
  MAX. CHANGE LAYER,ROW,COL MAX. CHANGE LAYER,ROW,COL MAX. CHANGE LAYER,ROW,COL MAX. CHANGE LAYER,ROW,COL MAX. CHANGE LAYER,ROW,COL
 ------------------------------------------------------------------------------------------------------------------------------------
   0.2073E-01 (  2,  1, 78)  0.5628E-03 (  2,  1, 78)  0.1735E-04 (  2,  1, 79)  0.6372E-06 (  3,  1, 79)  0.2252E-07 (  3,  1, 76)


                                          ================================================
                                                         FROM TIME =   2300.0     TO    2310.0    

 
 SOLVING FOR HEAD 
 FLOW MODEL IS TRANSIENT
 FLOW MODEL CONTAINS CONSTANT-HEAD CELLS


 MAXIMUM STEPSIZE DURING WHICH ANY PARTICLE CANNOT MOVE MORE THAN ONE CELL
 =  5.676    (WHEN MIN. R.F.=1)  AT K=   4, I=   1, J=  60

 MAXIMUM STEPSIZE WHICH MEETS STABILITY CRITERION OF THE ADVECTION TERM
 (FOR PURE FINITE-DIFFERENCE OPTION, MIXELM=0) 
 =  3.552    (WHEN MIN. R.F.=1)  AT K=   2, I=   1, J=  77


 TOTAL NUMBER OF POINT SOURCES/SINKS PRESENT IN THE FLOW MODEL =    62

 MAXIMUM STEPSIZE WHICH MEETS STABILITY CRITERION OF THE SINK & SOURCE TERM
 =  474.6    (WHEN MIN. R.F.=1)  AT K=   2, I=   1, J=   1

 MAXIMUM STEPSIZE WHICH MEETS STABILITY CRITERION OF THE DISPERSION TERM
 =  20.29    (WHEN MIN. R.F.=1)  AT K=   1, I=   1, J=  31


     1 CALLS TO GCG PACKAGE FOR TRANSPORT TIME STEP   1 IN FLOW TIME STEP 231 STRESS PERIOD   1
     6 TOTAL ITERATIONS

 NO OUTPUT CONTROL FOR STRESS PERIOD    1   TIME STEP 231
 
 SOLVING FOR HEAD 
 FLOW MODEL IS TRANSIENT
 FLOW MODEL CONTAINS CONSTANT-HEAD CELLS


 MAXIMUM STEPSIZE DURING WHICH ANY PARTICLE CANNOT MOVE MORE THAN ONE CELL
 =  5.675    (WHEN MIN. R.F.=1)  AT K=   4, I=   1, J=  60

 MAXIMUM STEPSIZE WHICH MEETS STABILITY CRITERION OF THE ADVECTION TERM
 (FOR PURE FINITE-DIFFERENCE OPTION, MIXELM=0) 
 =  3.592    (WHEN MIN. R.F.=1)  AT K=   2, I=   1, J=  41


 TOTAL NUMBER OF POINT SOURCES/SINKS PRESENT IN THE FLOW MODEL =    62

 MAXIMUM STEPSIZE WHICH MEETS STABILITY CRITERION OF THE SINK & SOURCE TERM
 =  440.5    (WHEN MIN. R.F.=1)  AT K=   2, I=   1, J=   1

 MAXIMUM STEPSIZE WHICH MEETS STABILITY CRITERION OF THE DISPERSION TERM
 =  20.29    (WHEN MIN. R.F.=1)  AT K=   1, I=   1, J=  31
     1 CALLS TO GCG PACKAGE FOR TRANSPORT TIME STEP   2 IN FLOW TIME STEP 231 STRESS PERIOD   1
     6 TOTAL ITERATIONS
 
 SOLVING FOR HEAD 
 FLOW MODEL IS TRANSIENT
 FLOW MODEL CONTAINS CONSTANT-HEAD CELLS


 MAXIMUM STEPSIZE DURING WHICH ANY PARTICLE CANNOT MOVE MORE THAN ONE CELL
 =  5.674    (WHEN MIN. R.F.=1)  AT K=   4, I=   1, J=  60

 MAXIMUM STEPSIZE WHICH MEETS STABILITY CRITERION OF THE ADVECTION TERM
 (FOR PURE FINITE-DIFFERENCE OPTION, MIXELM=0) 
 =  3.631    (WHEN MIN. R.F.=1)  AT K=   2, I=   1, J=  41


 TOTAL NUMBER OF POINT SOURCES/SINKS PRESENT IN THE FLOW MODEL =    62

 MAXIMUM STEPSIZE WHICH MEETS STABILITY CRITERION OF THE SINK & SOURCE TERM
 =  455.9    (WHEN MIN. R.F.=1)  AT K=   2, I=   1, J=   1

 MAXIMUM STEPSIZE WHICH MEETS STABILITY CRITERION OF THE DISPERSION TERM
 =  20.29    (WHEN MIN. R.F.=1)  AT K=   1, I=   1, J=  31
     1 CALLS TO GCG PACKAGE FOR TRANSPORT TIME STEP   3 IN FLOW TIME STEP 231 STRESS PERIOD   1
     6 TOTAL ITERATIONS
 
 SOLVING FOR HEAD 
 FLOW MODEL IS TRANSIENT
 FLOW MODEL CONTAINS CONSTANT-HEAD CELLS


 MAXIMUM STEPSIZE DURING WHICH ANY PARTICLE CANNOT MOVE MORE THAN ONE CELL
 =  5.577    (WHEN MIN. R.F.=1)  AT K=   4, I=   1, J=  48

 MAXIMUM STEPSIZE WHICH MEETS STABILITY CRITERION OF THE ADVECTION TERM
 (FOR PURE FINITE-DIFFERENCE OPTION, MIXELM=0) 
 =  3.872    (WHEN MIN. R.F.=1)  AT K=   2, I=   1, J=  41


 TOTAL NUMBER OF POINT SOURCES/SINKS PRESENT IN THE FLOW MODEL =    62

 MAXIMUM STEPSIZE WHICH MEETS STABILITY CRITERION OF THE SINK & SOURCE TERM
 =  428.5    (WHEN MIN. R.F.=1)  AT K=   2, I=   1, J=   1

 MAXIMUM STEPSIZE WHICH MEETS STABILITY CRITERION OF THE DISPERSION TERM
 =  20.29    (WHEN MIN. R.F.=1)  AT K=   1, I=   1, J=  31
     1 CALLS TO GCG PACKAGE FOR TRANSPORT TIME STEP   4 IN FLOW TIME STEP 231 STRESS PERIOD   1
     5 TOTAL ITERATIONS
  MAXIMUM CONCENTRATION CHANGES FOR EACH ITERATION:
  MAX. CHANGE LAYER,ROW,COL MAX. CHANGE LAYER,ROW,COL MAX. CHANGE LAYER,ROW,COL MAX. CHANGE LAYER,ROW,COL MAX. CHANGE LAYER,ROW,COL
 ------------------------------------------------------------------------------------------------------------------------------------
   0.2451E-01 (  2,  1, 40)  0.9028E-03 (  2,  1, 76)  0.3321E-04 (  3,  1, 76)  0.1200E-05 (  4,  1, 42)  0.4349E-07 ( 29,  1, 22)


                                          ================================================
                                                         FROM TIME =   2310.0     TO    2320.0    

 
 SOLVING FOR HEAD 
 FLOW MODEL IS TRANSIENT
 FLOW MODEL CONTAINS CONSTANT-HEAD CELLS


 MAXIMUM STEPSIZE DURING WHICH ANY PARTICLE CANNOT MOVE MORE THAN ONE CELL
 =  5.487    (WHEN MIN. R.F.=1)  AT K=   4, I=   1, J=  48

 MAXIMUM STEPSIZE WHICH MEETS STABILITY CRITERION OF THE ADVECTION TERM
 (FOR PURE FINITE-DIFFERENCE OPTION, MIXELM=0) 
 =  3.728    (WHEN MIN. R.F.=1)  AT K=   2, I=   1, J=  42


 TOTAL NUMBER OF POINT SOURCES/SINKS PRESENT IN THE FLOW MODEL =    62

 MAXIMUM STEPSIZE WHICH MEETS STABILITY CRITERION OF THE SINK & SOURCE TERM
 =  455.0    (WHEN MIN. R.F.=1)  AT K=   2, I=   1, J=   1

 MAXIMUM STEPSIZE WHICH MEETS STABILITY CRITERION OF THE DISPERSION TERM
 =  20.29    (WHEN MIN. R.F.=1)  AT K=   1, I=   1, J=  31


     1 CALLS TO GCG PACKAGE FOR TRANSPORT TIME STEP   1 IN FLOW TIME STEP 232 STRESS PERIOD   1
     6 TOTAL ITERATIONS

 NO OUTPUT CONTROL FOR STRESS PERIOD    1   TIME STEP 232
 
 SOLVING FOR HEAD 
 FLOW MODEL IS TRANSIENT
 FLOW MODEL CONTAINS CONSTANT-HEAD CELLS


 MAXIMUM STEPSIZE DURING WHICH ANY PARTICLE CANNOT MOVE MORE THAN ONE CELL
 =  5.449    (WHEN MIN. R.F.=1)  AT K=   4, I=   1, J=  48

 MAXIMUM STEPSIZE WHICH MEETS STABILITY CRITERION OF THE ADVECTION TERM
 (FOR PURE FINITE-DIFFERENCE OPTION, MIXELM=0) 
 =  3.548    (WHEN MIN. R.F.=1)  AT K=   2, I=   1, J=  42


 TOTAL NUMBER OF POINT SOURCES/SINKS PRESENT IN THE FLOW MODEL =    62

 MAXIMUM STEPSIZE WHICH MEETS STABILITY CRITERION OF THE SINK & SOURCE TERM
 =  437.6    (WHEN MIN. R.F.=1)  AT K=   2, I=   1, J=   1

 MAXIMUM STEPSIZE WHICH MEETS STABILITY CRITERION OF THE DISPERSION TERM
 =  20.29    (WHEN MIN. R.F.=1)  AT K=   1, I=   1, J=  31
     1 CALLS TO GCG PACKAGE FOR TRANSPORT TIME STEP   2 IN FLOW TIME STEP 232 STRESS PERIOD   1
     6 TOTAL ITERATIONS
 
 SOLVING FOR HEAD 
 FLOW MODEL IS TRANSIENT
 FLOW MODEL CONTAINS CONSTANT-HEAD CELLS


 MAXIMUM STEPSIZE DURING WHICH ANY PARTICLE CANNOT MOVE MORE THAN ONE CELL
 =  5.507    (WHEN MIN. R.F.=1)  AT K=   4, I=   1, J=  48

 MAXIMUM STEPSIZE WHICH MEETS STABILITY CRITERION OF THE ADVECTION TERM
 (FOR PURE FINITE-DIFFERENCE OPTION, MIXELM=0) 
 =  3.542    (WHEN MIN. R.F.=1)  AT K=   2, I=   1, J=  42


 TOTAL NUMBER OF POINT SOURCES/SINKS PRESENT IN THE FLOW MODEL =    62

 MAXIMUM STEPSIZE WHICH MEETS STABILITY CRITERION OF THE SINK & SOURCE TERM
 =  493.8    (WHEN MIN. R.F.=1)  AT K=   2, I=   1, J=   1

 MAXIMUM STEPSIZE WHICH MEETS STABILITY CRITERION OF THE DISPERSION TERM
 =  20.29    (WHEN MIN. R.F.=1)  AT K=   1, I=   1, J=  31
     1 CALLS TO GCG PACKAGE FOR TRANSPORT TIME STEP   3 IN FLOW TIME STEP 232 STRESS PERIOD   1
     6 TOTAL ITERATIONS
 
 SOLVING FOR HEAD 
 FLOW MODEL IS TRANSIENT
 FLOW MODEL CONTAINS CONSTANT-HEAD CELLS


 MAXIMUM STEPSIZE DURING WHICH ANY PARTICLE CANNOT MOVE MORE THAN ONE CELL
 =  5.610    (WHEN MIN. R.F.=1)  AT K=   5, I=   1, J=  48

 MAXIMUM STEPSIZE WHICH MEETS STABILITY CRITERION OF THE ADVECTION TERM
 (FOR PURE FINITE-DIFFERENCE OPTION, MIXELM=0) 
 =  3.653    (WHEN MIN. R.F.=1)  AT K=   2, I=   1, J=  42


 TOTAL NUMBER OF POINT SOURCES/SINKS PRESENT IN THE FLOW MODEL =    62

 MAXIMUM STEPSIZE WHICH MEETS STABILITY CRITERION OF THE SINK & SOURCE TERM
 =  520.6    (WHEN MIN. R.F.=1)  AT K=   2, I=   1, J=   1

 MAXIMUM STEPSIZE WHICH MEETS STABILITY CRITERION OF THE DISPERSION TERM
 =  20.29    (WHEN MIN. R.F.=1)  AT K=   1, I=   1, J=  31
     1 CALLS TO GCG PACKAGE FOR TRANSPORT TIME STEP   4 IN FLOW TIME STEP 232 STRESS PERIOD   1
     5 TOTAL ITERATIONS
  MAXIMUM CONCENTRATION CHANGES FOR EACH ITERATION:
  MAX. CHANGE LAYER,ROW,COL MAX. CHANGE LAYER,ROW,COL MAX. CHANGE LAYER,ROW,COL MAX. CHANGE LAYER,ROW,COL MAX. CHANGE LAYER,ROW,COL
 ------------------------------------------------------------------------------------------------------------------------------------
   0.2185E-01 (  2,  1, 77)  0.4437E-03 (  2,  1, 74)  0.1889E-04 (  3,  1, 43)  0.6573E-06 (  3,  1, 78)  0.1733E-07 (  4,  1, 74)


                                          ================================================
                                                         FROM TIME =   2320.0     TO    2330.0    

 
 SOLVING FOR HEAD 
 FLOW MODEL IS TRANSIENT
 FLOW MODEL CONTAINS CONSTANT-HEAD CELLS


 MAXIMUM STEPSIZE DURING WHICH ANY PARTICLE CANNOT MOVE MORE THAN ONE CELL
 =  5.644    (WHEN MIN. R.F.=1)  AT K=   5, I=   1, J=  48

 MAXIMUM STEPSIZE WHICH MEETS STABILITY CRITERION OF THE ADVECTION TERM
 (FOR PURE FINITE-DIFFERENCE OPTION, MIXELM=0) 
 =  3.821    (WHEN MIN. R.F.=1)  AT K=   2, I=   1, J=  42


 TOTAL NUMBER OF POINT SOURCES/SINKS PRESENT IN THE FLOW MODEL =    62

 MAXIMUM STEPSIZE WHICH MEETS STABILITY CRITERION OF THE SINK & SOURCE TERM
 =  574.9    (WHEN MIN. R.F.=1)  AT K=   2, I=   1, J=   1

 MAXIMUM STEPSIZE WHICH MEETS STABILITY CRITERION OF THE DISPERSION TERM
 =  20.29    (WHEN MIN. R.F.=1)  AT K=   1, I=   1, J=  31


     1 CALLS TO GCG PACKAGE FOR TRANSPORT TIME STEP   1 IN FLOW TIME STEP 233 STRESS PERIOD   1
     6 TOTAL ITERATIONS

 NO OUTPUT CONTROL FOR STRESS PERIOD    1   TIME STEP 233
 
 SOLVING FOR HEAD 
 FLOW MODEL IS TRANSIENT
 FLOW MODEL CONTAINS CONSTANT-HEAD CELLS


 MAXIMUM STEPSIZE DURING WHICH ANY PARTICLE CANNOT MOVE MORE THAN ONE CELL
 =  5.670    (WHEN MIN. R.F.=1)  AT K=   4, I=   1, J=  60

 MAXIMUM STEPSIZE WHICH MEETS STABILITY CRITERION OF THE ADVECTION TERM
 (FOR PURE FINITE-DIFFERENCE OPTION, MIXELM=0) 
 =  3.755    (WHEN MIN. R.F.=1)  AT K=   2, I=   1, J=  43


 TOTAL NUMBER OF POINT SOURCES/SINKS PRESENT IN THE FLOW MODEL =    62

 MAXIMUM STEPSIZE WHICH MEETS STABILITY CRITERION OF THE SINK & SOURCE TERM
 =  512.9    (WHEN MIN. R.F.=1)  AT K=   2, I=   1, J=   1

 MAXIMUM STEPSIZE WHICH MEETS STABILITY CRITERION OF THE DISPERSION TERM
 =  20.29    (WHEN MIN. R.F.=1)  AT K=   1, I=   1, J=  31
     1 CALLS TO GCG PACKAGE FOR TRANSPORT TIME STEP   2 IN FLOW TIME STEP 233 STRESS PERIOD   1
     6 TOTAL ITERATIONS
 
 SOLVING FOR HEAD 
 FLOW MODEL IS TRANSIENT
 FLOW MODEL CONTAINS CONSTANT-HEAD CELLS


 MAXIMUM STEPSIZE DURING WHICH ANY PARTICLE CANNOT MOVE MORE THAN ONE CELL
 =  5.667    (WHEN MIN. R.F.=1)  AT K=   4, I=   1, J=  60

 MAXIMUM STEPSIZE WHICH MEETS STABILITY CRITERION OF THE ADVECTION TERM
 (FOR PURE FINITE-DIFFERENCE OPTION, MIXELM=0) 
 =  3.589    (WHEN MIN. R.F.=1)  AT K=   2, I=   1, J=  43


 TOTAL NUMBER OF POINT SOURCES/SINKS PRESENT IN THE FLOW MODEL =    62

 MAXIMUM STEPSIZE WHICH MEETS STABILITY CRITERION OF THE SINK & SOURCE TERM
 =  506.9    (WHEN MIN. R.F.=1)  AT K=   2, I=   1, J=   1

 MAXIMUM STEPSIZE WHICH MEETS STABILITY CRITERION OF THE DISPERSION TERM
 =  20.29    (WHEN MIN. R.F.=1)  AT K=   1, I=   1, J=  31
     1 CALLS TO GCG PACKAGE FOR TRANSPORT TIME STEP   3 IN FLOW TIME STEP 233 STRESS PERIOD   1
     6 TOTAL ITERATIONS
 
 SOLVING FOR HEAD 
 FLOW MODEL IS TRANSIENT
 FLOW MODEL CONTAINS CONSTANT-HEAD CELLS


 MAXIMUM STEPSIZE DURING WHICH ANY PARTICLE CANNOT MOVE MORE THAN ONE CELL
 =  5.665    (WHEN MIN. R.F.=1)  AT K=   4, I=   1, J=  60

 MAXIMUM STEPSIZE WHICH MEETS STABILITY CRITERION OF THE ADVECTION TERM
 (FOR PURE FINITE-DIFFERENCE OPTION, MIXELM=0) 
 =  3.583    (WHEN MIN. R.F.=1)  AT K=   2, I=   1, J=  43


 TOTAL NUMBER OF POINT SOURCES/SINKS PRESENT IN THE FLOW MODEL =    62

 MAXIMUM STEPSIZE WHICH MEETS STABILITY CRITERION OF THE SINK & SOURCE TERM
 =  511.8    (WHEN MIN. R.F.=1)  AT K=   2, I=   1, J=   1

 MAXIMUM STEPSIZE WHICH MEETS STABILITY CRITERION OF THE DISPERSION TERM
 =  20.29    (WHEN MIN. R.F.=1)  AT K=   1, I=   1, J=  31
     1 CALLS TO GCG PACKAGE FOR TRANSPORT TIME STEP   4 IN FLOW TIME STEP 233 STRESS PERIOD   1
     5 TOTAL ITERATIONS
  MAXIMUM CONCENTRATION CHANGES FOR EACH ITERATION:
  MAX. CHANGE LAYER,ROW,COL MAX. CHANGE LAYER,ROW,COL MAX. CHANGE LAYER,ROW,COL MAX. CHANGE LAYER,ROW,COL MAX. CHANGE LAYER,ROW,COL
 ------------------------------------------------------------------------------------------------------------------------------------
   0.2054E-01 (  2,  1, 83)  0.5107E-03 (  2,  1, 83)  0.1495E-04 (  2,  1, 84)  0.7304E-06 (  3,  1, 46)  0.1784E-07 (  4,  1, 46)


                                          ================================================
                                                         FROM TIME =   2330.0     TO    2340.0    

 
 SOLVING FOR HEAD 
 FLOW MODEL IS TRANSIENT
 FLOW MODEL CONTAINS CONSTANT-HEAD CELLS


 MAXIMUM STEPSIZE DURING WHICH ANY PARTICLE CANNOT MOVE MORE THAN ONE CELL
 =  5.667    (WHEN MIN. R.F.=1)  AT K=   4, I=   1, J=  60

 MAXIMUM STEPSIZE WHICH MEETS STABILITY CRITERION OF THE ADVECTION TERM
 (FOR PURE FINITE-DIFFERENCE OPTION, MIXELM=0) 
 =  3.632    (WHEN MIN. R.F.=1)  AT K=   2, I=   1, J=  43


 TOTAL NUMBER OF POINT SOURCES/SINKS PRESENT IN THE FLOW MODEL =    62

 MAXIMUM STEPSIZE WHICH MEETS STABILITY CRITERION OF THE SINK & SOURCE TERM
 =  649.4    (WHEN MIN. R.F.=1)  AT K=   2, I=   1, J=   1

 MAXIMUM STEPSIZE WHICH MEETS STABILITY CRITERION OF THE DISPERSION TERM
 =  20.29    (WHEN MIN. R.F.=1)  AT K=   1, I=   1, J=  31


     1 CALLS TO GCG PACKAGE FOR TRANSPORT TIME STEP   1 IN FLOW TIME STEP 234 STRESS PERIOD   1
     6 TOTAL ITERATIONS

 NO OUTPUT CONTROL FOR STRESS PERIOD    1   TIME STEP 234
 
 SOLVING FOR HEAD 
 FLOW MODEL IS TRANSIENT
 FLOW MODEL CONTAINS CONSTANT-HEAD CELLS


 MAXIMUM STEPSIZE DURING WHICH ANY PARTICLE CANNOT MOVE MORE THAN ONE CELL
 =  5.666    (WHEN MIN. R.F.=1)  AT K=   4, I=   1, J=  60

 MAXIMUM STEPSIZE WHICH MEETS STABILITY CRITERION OF THE ADVECTION TERM
 (FOR PURE FINITE-DIFFERENCE OPTION, MIXELM=0) 
 =  3.839    (WHEN MIN. R.F.=1)  AT K=   2, I=   1, J=  43


 TOTAL NUMBER OF POINT SOURCES/SINKS PRESENT IN THE FLOW MODEL =    62

 MAXIMUM STEPSIZE WHICH MEETS STABILITY CRITERION OF THE SINK & SOURCE TERM
 =  591.5    (WHEN MIN. R.F.=1)  AT K=   2, I=   1, J=   1

 MAXIMUM STEPSIZE WHICH MEETS STABILITY CRITERION OF THE DISPERSION TERM
 =  20.29    (WHEN MIN. R.F.=1)  AT K=   1, I=   1, J=  31
     1 CALLS TO GCG PACKAGE FOR TRANSPORT TIME STEP   2 IN FLOW TIME STEP 234 STRESS PERIOD   1
     6 TOTAL ITERATIONS
 
 SOLVING FOR HEAD 
 FLOW MODEL IS TRANSIENT
 FLOW MODEL CONTAINS CONSTANT-HEAD CELLS


 MAXIMUM STEPSIZE DURING WHICH ANY PARTICLE CANNOT MOVE MORE THAN ONE CELL
 =  5.664    (WHEN MIN. R.F.=1)  AT K=   4, I=   1, J=  60

 MAXIMUM STEPSIZE WHICH MEETS STABILITY CRITERION OF THE ADVECTION TERM
 (FOR PURE FINITE-DIFFERENCE OPTION, MIXELM=0) 
 =  3.919    (WHEN MIN. R.F.=1)  AT K=   2, I=   1, J=  44


 TOTAL NUMBER OF POINT SOURCES/SINKS PRESENT IN THE FLOW MODEL =    62

 MAXIMUM STEPSIZE WHICH MEETS STABILITY CRITERION OF THE SINK & SOURCE TERM
 =  541.8    (WHEN MIN. R.F.=1)  AT K=   2, I=   1, J=   1

 MAXIMUM STEPSIZE WHICH MEETS STABILITY CRITERION OF THE DISPERSION TERM
 =  20.29    (WHEN MIN. R.F.=1)  AT K=   1, I=   1, J=  31
     1 CALLS TO GCG PACKAGE FOR TRANSPORT TIME STEP   3 IN FLOW TIME STEP 234 STRESS PERIOD   1
     6 TOTAL ITERATIONS
 
 SOLVING FOR HEAD 
 FLOW MODEL IS TRANSIENT
 FLOW MODEL CONTAINS CONSTANT-HEAD CELLS


 MAXIMUM STEPSIZE DURING WHICH ANY PARTICLE CANNOT MOVE MORE THAN ONE CELL
 =  5.661    (WHEN MIN. R.F.=1)  AT K=   4, I=   1, J=  60

 MAXIMUM STEPSIZE WHICH MEETS STABILITY CRITERION OF THE ADVECTION TERM
 (FOR PURE FINITE-DIFFERENCE OPTION, MIXELM=0) 
 =  3.709    (WHEN MIN. R.F.=1)  AT K=   2, I=   1, J=  44


 TOTAL NUMBER OF POINT SOURCES/SINKS PRESENT IN THE FLOW MODEL =    62

 MAXIMUM STEPSIZE WHICH MEETS STABILITY CRITERION OF THE SINK & SOURCE TERM
 =  520.3    (WHEN MIN. R.F.=1)  AT K=   2, I=   1, J=   1

 MAXIMUM STEPSIZE WHICH MEETS STABILITY CRITERION OF THE DISPERSION TERM
 =  20.29    (WHEN MIN. R.F.=1)  AT K=   1, I=   1, J=  31
     1 CALLS TO GCG PACKAGE FOR TRANSPORT TIME STEP   4 IN FLOW TIME STEP 234 STRESS PERIOD   1
     5 TOTAL ITERATIONS
  MAXIMUM CONCENTRATION CHANGES FOR EACH ITERATION:
  MAX. CHANGE LAYER,ROW,COL MAX. CHANGE LAYER,ROW,COL MAX. CHANGE LAYER,ROW,COL MAX. CHANGE LAYER,ROW,COL MAX. CHANGE LAYER,ROW,COL
 ------------------------------------------------------------------------------------------------------------------------------------
   0.2106E-01 (  2,  1, 82)  0.6331E-03 (  2,  1, 82)  0.2132E-04 (  2,  1, 83)  0.7140E-06 (  3,  1, 83)  0.2346E-07 (  4,  1, 73)


                                          ================================================
                                                         FROM TIME =   2340.0     TO    2350.0    

 
 SOLVING FOR HEAD 
 FLOW MODEL IS TRANSIENT
 FLOW MODEL CONTAINS CONSTANT-HEAD CELLS


 MAXIMUM STEPSIZE DURING WHICH ANY PARTICLE CANNOT MOVE MORE THAN ONE CELL
 =  5.663    (WHEN MIN. R.F.=1)  AT K=   4, I=   1, J=  60

 MAXIMUM STEPSIZE WHICH MEETS STABILITY CRITERION OF THE ADVECTION TERM
 (FOR PURE FINITE-DIFFERENCE OPTION, MIXELM=0) 
 =  3.672    (WHEN MIN. R.F.=1)  AT K=   2, I=   1, J=  44


 TOTAL NUMBER OF POINT SOURCES/SINKS PRESENT IN THE FLOW MODEL =    62

 MAXIMUM STEPSIZE WHICH MEETS STABILITY CRITERION OF THE SINK & SOURCE TERM
 =  574.8    (WHEN MIN. R.F.=1)  AT K=   2, I=   1, J=   1

 MAXIMUM STEPSIZE WHICH MEETS STABILITY CRITERION OF THE DISPERSION TERM
 =  20.29    (WHEN MIN. R.F.=1)  AT K=   1, I=   1, J=  31


     1 CALLS TO GCG PACKAGE FOR TRANSPORT TIME STEP   1 IN FLOW TIME STEP 235 STRESS PERIOD   1
     6 TOTAL ITERATIONS

 NO OUTPUT CONTROL FOR STRESS PERIOD    1   TIME STEP 235
 
 SOLVING FOR HEAD 
 FLOW MODEL IS TRANSIENT
 FLOW MODEL CONTAINS CONSTANT-HEAD CELLS


 MAXIMUM STEPSIZE DURING WHICH ANY PARTICLE CANNOT MOVE MORE THAN ONE CELL
 =  5.662    (WHEN MIN. R.F.=1)  AT K=   4, I=   1, J=  60

 MAXIMUM STEPSIZE WHICH MEETS STABILITY CRITERION OF THE ADVECTION TERM
 (FOR PURE FINITE-DIFFERENCE OPTION, MIXELM=0) 
 =  3.702    (WHEN MIN. R.F.=1)  AT K=   2, I=   1, J=  44


 TOTAL NUMBER OF POINT SOURCES/SINKS PRESENT IN THE FLOW MODEL =    62

 MAXIMUM STEPSIZE WHICH MEETS STABILITY CRITERION OF THE SINK & SOURCE TERM
 =  555.6    (WHEN MIN. R.F.=1)  AT K=   2, I=   1, J=   1

 MAXIMUM STEPSIZE WHICH MEETS STABILITY CRITERION OF THE DISPERSION TERM
 =  20.29    (WHEN MIN. R.F.=1)  AT K=   1, I=   1, J=  31
     1 CALLS TO GCG PACKAGE FOR TRANSPORT TIME STEP   2 IN FLOW TIME STEP 235 STRESS PERIOD   1
     6 TOTAL ITERATIONS
 
 SOLVING FOR HEAD 
 FLOW MODEL IS TRANSIENT
 FLOW MODEL CONTAINS CONSTANT-HEAD CELLS


 MAXIMUM STEPSIZE DURING WHICH ANY PARTICLE CANNOT MOVE MORE THAN ONE CELL
 =  5.660    (WHEN MIN. R.F.=1)  AT K=   4, I=   1, J=  60

 MAXIMUM STEPSIZE WHICH MEETS STABILITY CRITERION OF THE ADVECTION TERM
 (FOR PURE FINITE-DIFFERENCE OPTION, MIXELM=0) 
 =  3.781    (WHEN MIN. R.F.=1)  AT K=   2, I=   1, J=  80


 TOTAL NUMBER OF POINT SOURCES/SINKS PRESENT IN THE FLOW MODEL =    62

 MAXIMUM STEPSIZE WHICH MEETS STABILITY CRITERION OF THE SINK & SOURCE TERM
 =  570.0    (WHEN MIN. R.F.=1)  AT K=   2, I=   1, J=   1

 MAXIMUM STEPSIZE WHICH MEETS STABILITY CRITERION OF THE DISPERSION TERM
 =  20.29    (WHEN MIN. R.F.=1)  AT K=   1, I=   1, J=  31
     1 CALLS TO GCG PACKAGE FOR TRANSPORT TIME STEP   3 IN FLOW TIME STEP 235 STRESS PERIOD   1
     6 TOTAL ITERATIONS
 
 SOLVING FOR HEAD 
 FLOW MODEL IS TRANSIENT
 FLOW MODEL CONTAINS CONSTANT-HEAD CELLS


 MAXIMUM STEPSIZE DURING WHICH ANY PARTICLE CANNOT MOVE MORE THAN ONE CELL
 =  5.652    (WHEN MIN. R.F.=1)  AT K=   4, I=   1, J=  73

 MAXIMUM STEPSIZE WHICH MEETS STABILITY CRITERION OF THE ADVECTION TERM
 (FOR PURE FINITE-DIFFERENCE OPTION, MIXELM=0) 
 =  3.503    (WHEN MIN. R.F.=1)  AT K=   2, I=   1, J=  80


 TOTAL NUMBER OF POINT SOURCES/SINKS PRESENT IN THE FLOW MODEL =    62

 MAXIMUM STEPSIZE WHICH MEETS STABILITY CRITERION OF THE SINK & SOURCE TERM
 =  551.3    (WHEN MIN. R.F.=1)  AT K=   2, I=   1, J=   1

 MAXIMUM STEPSIZE WHICH MEETS STABILITY CRITERION OF THE DISPERSION TERM
 =  20.29    (WHEN MIN. R.F.=1)  AT K=   1, I=   1, J=  31
     1 CALLS TO GCG PACKAGE FOR TRANSPORT TIME STEP   4 IN FLOW TIME STEP 235 STRESS PERIOD   1
     5 TOTAL ITERATIONS
  MAXIMUM CONCENTRATION CHANGES FOR EACH ITERATION:
  MAX. CHANGE LAYER,ROW,COL MAX. CHANGE LAYER,ROW,COL MAX. CHANGE LAYER,ROW,COL MAX. CHANGE LAYER,ROW,COL MAX. CHANGE LAYER,ROW,COL
 ------------------------------------------------------------------------------------------------------------------------------------
   0.1982E-01 (  2,  1, 43)  0.5276E-03 (  2,  1, 81)  0.1721E-04 (  3,  1, 79)  0.6296E-06 (  4,  1, 79)  0.2150E-07 (  4,  1, 73)


                                          ================================================
                                                         FROM TIME =   2350.0     TO    2360.0    

 
 SOLVING FOR HEAD 
 FLOW MODEL IS TRANSIENT
 FLOW MODEL CONTAINS CONSTANT-HEAD CELLS


 MAXIMUM STEPSIZE DURING WHICH ANY PARTICLE CANNOT MOVE MORE THAN ONE CELL
 =  5.523    (WHEN MIN. R.F.=1)  AT K=   4, I=   1, J=  73

 MAXIMUM STEPSIZE WHICH MEETS STABILITY CRITERION OF THE ADVECTION TERM
 (FOR PURE FINITE-DIFFERENCE OPTION, MIXELM=0) 
 =  3.455    (WHEN MIN. R.F.=1)  AT K=   2, I=   1, J=  80


 TOTAL NUMBER OF POINT SOURCES/SINKS PRESENT IN THE FLOW MODEL =    62

 MAXIMUM STEPSIZE WHICH MEETS STABILITY CRITERION OF THE SINK & SOURCE TERM
 =  628.1    (WHEN MIN. R.F.=1)  AT K=   2, I=   1, J=   1

 MAXIMUM STEPSIZE WHICH MEETS STABILITY CRITERION OF THE DISPERSION TERM
 =  20.29    (WHEN MIN. R.F.=1)  AT K=   1, I=   1, J=  31


     1 CALLS TO GCG PACKAGE FOR TRANSPORT TIME STEP   1 IN FLOW TIME STEP 236 STRESS PERIOD   1
     6 TOTAL ITERATIONS

 NO OUTPUT CONTROL FOR STRESS PERIOD    1   TIME STEP 236
 
 SOLVING FOR HEAD 
 FLOW MODEL IS TRANSIENT
 FLOW MODEL CONTAINS CONSTANT-HEAD CELLS


 MAXIMUM STEPSIZE DURING WHICH ANY PARTICLE CANNOT MOVE MORE THAN ONE CELL
 =  5.364    (WHEN MIN. R.F.=1)  AT K=   4, I=   1, J=  73

 MAXIMUM STEPSIZE WHICH MEETS STABILITY CRITERION OF THE ADVECTION TERM
 (FOR PURE FINITE-DIFFERENCE OPTION, MIXELM=0) 
 =  3.466    (WHEN MIN. R.F.=1)  AT K=   2, I=   1, J=  80


 TOTAL NUMBER OF POINT SOURCES/SINKS PRESENT IN THE FLOW MODEL =    62

 MAXIMUM STEPSIZE WHICH MEETS STABILITY CRITERION OF THE SINK & SOURCE TERM
 =  577.7    (WHEN MIN. R.F.=1)  AT K=   2, I=   1, J=   1

 MAXIMUM STEPSIZE WHICH MEETS STABILITY CRITERION OF THE DISPERSION TERM
 =  20.29    (WHEN MIN. R.F.=1)  AT K=   1, I=   1, J=  31
     1 CALLS TO GCG PACKAGE FOR TRANSPORT TIME STEP   2 IN FLOW TIME STEP 236 STRESS PERIOD   1
     6 TOTAL ITERATIONS
 
 SOLVING FOR HEAD 
 FLOW MODEL IS TRANSIENT
 FLOW MODEL CONTAINS CONSTANT-HEAD CELLS


 MAXIMUM STEPSIZE DURING WHICH ANY PARTICLE CANNOT MOVE MORE THAN ONE CELL
 =  5.245    (WHEN MIN. R.F.=1)  AT K=   4, I=   1, J=  73

 MAXIMUM STEPSIZE WHICH MEETS STABILITY CRITERION OF THE ADVECTION TERM
 (FOR PURE FINITE-DIFFERENCE OPTION, MIXELM=0) 
 =  3.710    (WHEN MIN. R.F.=1)  AT K=   2, I=   1, J=  80


 TOTAL NUMBER OF POINT SOURCES/SINKS PRESENT IN THE FLOW MODEL =    62

 MAXIMUM STEPSIZE WHICH MEETS STABILITY CRITERION OF THE SINK & SOURCE TERM
 =  589.2    (WHEN MIN. R.F.=1)  AT K=   2, I=   1, J=   1

 MAXIMUM STEPSIZE WHICH MEETS STABILITY CRITERION OF THE DISPERSION TERM
 =  20.29    (WHEN MIN. R.F.=1)  AT K=   1, I=   1, J=  31
     1 CALLS TO GCG PACKAGE FOR TRANSPORT TIME STEP   3 IN FLOW TIME STEP 236 STRESS PERIOD   1
     6 TOTAL ITERATIONS
 
 SOLVING FOR HEAD 
 FLOW MODEL IS TRANSIENT
 FLOW MODEL CONTAINS CONSTANT-HEAD CELLS


 MAXIMUM STEPSIZE DURING WHICH ANY PARTICLE CANNOT MOVE MORE THAN ONE CELL
 =  5.160    (WHEN MIN. R.F.=1)  AT K=   4, I=   1, J=  73

 MAXIMUM STEPSIZE WHICH MEETS STABILITY CRITERION OF THE ADVECTION TERM
 (FOR PURE FINITE-DIFFERENCE OPTION, MIXELM=0) 
 =  3.562    (WHEN MIN. R.F.=1)  AT K=   2, I=   1, J=  79


 TOTAL NUMBER OF POINT SOURCES/SINKS PRESENT IN THE FLOW MODEL =    62

 MAXIMUM STEPSIZE WHICH MEETS STABILITY CRITERION OF THE SINK & SOURCE TERM
 =  588.6    (WHEN MIN. R.F.=1)  AT K=   2, I=   1, J=   1

 MAXIMUM STEPSIZE WHICH MEETS STABILITY CRITERION OF THE DISPERSION TERM
 =  20.29    (WHEN MIN. R.F.=1)  AT K=   1, I=   1, J=  31
     1 CALLS TO GCG PACKAGE FOR TRANSPORT TIME STEP   4 IN FLOW TIME STEP 236 STRESS PERIOD   1
     5 TOTAL ITERATIONS
  MAXIMUM CONCENTRATION CHANGES FOR EACH ITERATION:
  MAX. CHANGE LAYER,ROW,COL MAX. CHANGE LAYER,ROW,COL MAX. CHANGE LAYER,ROW,COL MAX. CHANGE LAYER,ROW,COL MAX. CHANGE LAYER,ROW,COL
 ------------------------------------------------------------------------------------------------------------------------------------
   0.2655E-01 (  2,  1, 81)  0.9905E-03 (  2,  1, 79)  0.4333E-04 (  3,  1, 79)  0.2069E-05 (  3,  1, 76)  0.8492E-07 (  4,  1, 76)


                                          ================================================
                                                         FROM TIME =   2360.0     TO    2370.0    

 
 SOLVING FOR HEAD 
 FLOW MODEL IS TRANSIENT
 FLOW MODEL CONTAINS CONSTANT-HEAD CELLS


 MAXIMUM STEPSIZE DURING WHICH ANY PARTICLE CANNOT MOVE MORE THAN ONE CELL
 =  5.117    (WHEN MIN. R.F.=1)  AT K=   4, I=   1, J=  73

 MAXIMUM STEPSIZE WHICH MEETS STABILITY CRITERION OF THE ADVECTION TERM
 (FOR PURE FINITE-DIFFERENCE OPTION, MIXELM=0) 
 =  3.426    (WHEN MIN. R.F.=1)  AT K=   2, I=   1, J=  79


 TOTAL NUMBER OF POINT SOURCES/SINKS PRESENT IN THE FLOW MODEL =    62

 MAXIMUM STEPSIZE WHICH MEETS STABILITY CRITERION OF THE SINK & SOURCE TERM
 =  616.9    (WHEN MIN. R.F.=1)  AT K=   2, I=   1, J=   1

 MAXIMUM STEPSIZE WHICH MEETS STABILITY CRITERION OF THE DISPERSION TERM
 =  20.29    (WHEN MIN. R.F.=1)  AT K=   1, I=   1, J=  31


     1 CALLS TO GCG PACKAGE FOR TRANSPORT TIME STEP   1 IN FLOW TIME STEP 237 STRESS PERIOD   1
     6 TOTAL ITERATIONS

 NO OUTPUT CONTROL FOR STRESS PERIOD    1   TIME STEP 237
 
 SOLVING FOR HEAD 
 FLOW MODEL IS TRANSIENT
 FLOW MODEL CONTAINS CONSTANT-HEAD CELLS


 MAXIMUM STEPSIZE DURING WHICH ANY PARTICLE CANNOT MOVE MORE THAN ONE CELL
 =  5.094    (WHEN MIN. R.F.=1)  AT K=   4, I=   1, J=  73

 MAXIMUM STEPSIZE WHICH MEETS STABILITY CRITERION OF THE ADVECTION TERM
 (FOR PURE FINITE-DIFFERENCE OPTION, MIXELM=0) 
 =  3.376    (WHEN MIN. R.F.=1)  AT K=   2, I=   1, J=  79


 TOTAL NUMBER OF POINT SOURCES/SINKS PRESENT IN THE FLOW MODEL =    62

 MAXIMUM STEPSIZE WHICH MEETS STABILITY CRITERION OF THE SINK & SOURCE TERM
 =  613.6    (WHEN MIN. R.F.=1)  AT K=   2, I=   1, J=   1

 MAXIMUM STEPSIZE WHICH MEETS STABILITY CRITERION OF THE DISPERSION TERM
 =  20.29    (WHEN MIN. R.F.=1)  AT K=   1, I=   1, J=  31
     1 CALLS TO GCG PACKAGE FOR TRANSPORT TIME STEP   2 IN FLOW TIME STEP 237 STRESS PERIOD   1
     6 TOTAL ITERATIONS
 
 SOLVING FOR HEAD 
 FLOW MODEL IS TRANSIENT
 FLOW MODEL CONTAINS CONSTANT-HEAD CELLS


 MAXIMUM STEPSIZE DURING WHICH ANY PARTICLE CANNOT MOVE MORE THAN ONE CELL
 =  5.105    (WHEN MIN. R.F.=1)  AT K=   4, I=   1, J=  73

 MAXIMUM STEPSIZE WHICH MEETS STABILITY CRITERION OF THE ADVECTION TERM
 (FOR PURE FINITE-DIFFERENCE OPTION, MIXELM=0) 
 =  3.453    (WHEN MIN. R.F.=1)  AT K=   2, I=   1, J=  79


 TOTAL NUMBER OF POINT SOURCES/SINKS PRESENT IN THE FLOW MODEL =    62

 MAXIMUM STEPSIZE WHICH MEETS STABILITY CRITERION OF THE SINK & SOURCE TERM
 =  628.2    (WHEN MIN. R.F.=1)  AT K=   2, I=   1, J=   1

 MAXIMUM STEPSIZE WHICH MEETS STABILITY CRITERION OF THE DISPERSION TERM
 =  20.29    (WHEN MIN. R.F.=1)  AT K=   1, I=   1, J=  31
     1 CALLS TO GCG PACKAGE FOR TRANSPORT TIME STEP   3 IN FLOW TIME STEP 237 STRESS PERIOD   1
     6 TOTAL ITERATIONS
 
 SOLVING FOR HEAD 
 FLOW MODEL IS TRANSIENT
 FLOW MODEL CONTAINS CONSTANT-HEAD CELLS


 MAXIMUM STEPSIZE DURING WHICH ANY PARTICLE CANNOT MOVE MORE THAN ONE CELL
 =  5.148    (WHEN MIN. R.F.=1)  AT K=   4, I=   1, J=  73

 MAXIMUM STEPSIZE WHICH MEETS STABILITY CRITERION OF THE ADVECTION TERM
 (FOR PURE FINITE-DIFFERENCE OPTION, MIXELM=0) 
 =  3.727    (WHEN MIN. R.F.=1)  AT K=   2, I=   1, J=  79


 TOTAL NUMBER OF POINT SOURCES/SINKS PRESENT IN THE FLOW MODEL =    62

 MAXIMUM STEPSIZE WHICH MEETS STABILITY CRITERION OF THE SINK & SOURCE TERM
 =  631.4    (WHEN MIN. R.F.=1)  AT K=   2, I=   1, J=   1

 MAXIMUM STEPSIZE WHICH MEETS STABILITY CRITERION OF THE DISPERSION TERM
 =  20.29    (WHEN MIN. R.F.=1)  AT K=   1, I=   1, J=  31
     1 CALLS TO GCG PACKAGE FOR TRANSPORT TIME STEP   4 IN FLOW TIME STEP 237 STRESS PERIOD   1
     5 TOTAL ITERATIONS
  MAXIMUM CONCENTRATION CHANGES FOR EACH ITERATION:
  MAX. CHANGE LAYER,ROW,COL MAX. CHANGE LAYER,ROW,COL MAX. CHANGE LAYER,ROW,COL MAX. CHANGE LAYER,ROW,COL MAX. CHANGE LAYER,ROW,COL
 ------------------------------------------------------------------------------------------------------------------------------------
   0.2829E-01 (  2,  1, 80)  0.1116E-02 (  2,  1, 78)  0.5635E-04 (  3,  1, 78)  0.2111E-05 (  4,  1, 78)  0.9145E-07 (  4,  1, 79)


                                          ================================================
                                                         FROM TIME =   2370.0     TO    2380.0    

 
 SOLVING FOR HEAD 
 FLOW MODEL IS TRANSIENT
 FLOW MODEL CONTAINS CONSTANT-HEAD CELLS


 MAXIMUM STEPSIZE DURING WHICH ANY PARTICLE CANNOT MOVE MORE THAN ONE CELL
 =  5.207    (WHEN MIN. R.F.=1)  AT K=   4, I=   1, J=  73

 MAXIMUM STEPSIZE WHICH MEETS STABILITY CRITERION OF THE ADVECTION TERM
 (FOR PURE FINITE-DIFFERENCE OPTION, MIXELM=0) 
 =  3.716    (WHEN MIN. R.F.=1)  AT K=   2, I=   1, J=  78


 TOTAL NUMBER OF POINT SOURCES/SINKS PRESENT IN THE FLOW MODEL =    62

 MAXIMUM STEPSIZE WHICH MEETS STABILITY CRITERION OF THE SINK & SOURCE TERM
 =  681.9    (WHEN MIN. R.F.=1)  AT K=   2, I=   1, J=   1

 MAXIMUM STEPSIZE WHICH MEETS STABILITY CRITERION OF THE DISPERSION TERM
 =  20.29    (WHEN MIN. R.F.=1)  AT K=   1, I=   1, J=  31


     1 CALLS TO GCG PACKAGE FOR TRANSPORT TIME STEP   1 IN FLOW TIME STEP 238 STRESS PERIOD   1
     6 TOTAL ITERATIONS

 NO OUTPUT CONTROL FOR STRESS PERIOD    1   TIME STEP 238
 
 SOLVING FOR HEAD 
 FLOW MODEL IS TRANSIENT
 FLOW MODEL CONTAINS CONSTANT-HEAD CELLS


 MAXIMUM STEPSIZE DURING WHICH ANY PARTICLE CANNOT MOVE MORE THAN ONE CELL
 =  5.253    (WHEN MIN. R.F.=1)  AT K=   5, I=   1, J=  73

 MAXIMUM STEPSIZE WHICH MEETS STABILITY CRITERION OF THE ADVECTION TERM
 (FOR PURE FINITE-DIFFERENCE OPTION, MIXELM=0) 
 =  3.513    (WHEN MIN. R.F.=1)  AT K=   2, I=   1, J=  78


 TOTAL NUMBER OF POINT SOURCES/SINKS PRESENT IN THE FLOW MODEL =    62

 MAXIMUM STEPSIZE WHICH MEETS STABILITY CRITERION OF THE SINK & SOURCE TERM
 =  694.5    (WHEN MIN. R.F.=1)  AT K=   2, I=   1, J=   1

 MAXIMUM STEPSIZE WHICH MEETS STABILITY CRITERION OF THE DISPERSION TERM
 =  20.29    (WHEN MIN. R.F.=1)  AT K=   1, I=   1, J=  31
     1 CALLS TO GCG PACKAGE FOR TRANSPORT TIME STEP   2 IN FLOW TIME STEP 238 STRESS PERIOD   1
     6 TOTAL ITERATIONS
 
 SOLVING FOR HEAD 
 FLOW MODEL IS TRANSIENT
 FLOW MODEL CONTAINS CONSTANT-HEAD CELLS


 MAXIMUM STEPSIZE DURING WHICH ANY PARTICLE CANNOT MOVE MORE THAN ONE CELL
 =  5.325    (WHEN MIN. R.F.=1)  AT K=   5, I=   1, J=  73

 MAXIMUM STEPSIZE WHICH MEETS STABILITY CRITERION OF THE ADVECTION TERM
 (FOR PURE FINITE-DIFFERENCE OPTION, MIXELM=0) 
 =  3.470    (WHEN MIN. R.F.=1)  AT K=   2, I=   1, J=  78


 TOTAL NUMBER OF POINT SOURCES/SINKS PRESENT IN THE FLOW MODEL =    62

 MAXIMUM STEPSIZE WHICH MEETS STABILITY CRITERION OF THE SINK & SOURCE TERM
 =  726.9    (WHEN MIN. R.F.=1)  AT K=   2, I=   1, J=   1

 MAXIMUM STEPSIZE WHICH MEETS STABILITY CRITERION OF THE DISPERSION TERM
 =  20.29    (WHEN MIN. R.F.=1)  AT K=   1, I=   1, J=  31
     1 CALLS TO GCG PACKAGE FOR TRANSPORT TIME STEP   3 IN FLOW TIME STEP 238 STRESS PERIOD   1
     6 TOTAL ITERATIONS
 
 SOLVING FOR HEAD 
 FLOW MODEL IS TRANSIENT
 FLOW MODEL CONTAINS CONSTANT-HEAD CELLS


 MAXIMUM STEPSIZE DURING WHICH ANY PARTICLE CANNOT MOVE MORE THAN ONE CELL
 =  5.421    (WHEN MIN. R.F.=1)  AT K=   5, I=   1, J=  73

 MAXIMUM STEPSIZE WHICH MEETS STABILITY CRITERION OF THE ADVECTION TERM
 (FOR PURE FINITE-DIFFERENCE OPTION, MIXELM=0) 
 =  3.557    (WHEN MIN. R.F.=1)  AT K=   2, I=   1, J=  78


 TOTAL NUMBER OF POINT SOURCES/SINKS PRESENT IN THE FLOW MODEL =    62

 MAXIMUM STEPSIZE WHICH MEETS STABILITY CRITERION OF THE SINK & SOURCE TERM
 =  729.6    (WHEN MIN. R.F.=1)  AT K=   2, I=   1, J=   1

 MAXIMUM STEPSIZE WHICH MEETS STABILITY CRITERION OF THE DISPERSION TERM
 =  20.29    (WHEN MIN. R.F.=1)  AT K=   1, I=   1, J=  31
     1 CALLS TO GCG PACKAGE FOR TRANSPORT TIME STEP   4 IN FLOW TIME STEP 238 STRESS PERIOD   1
     5 TOTAL ITERATIONS
  MAXIMUM CONCENTRATION CHANGES FOR EACH ITERATION:
  MAX. CHANGE LAYER,ROW,COL MAX. CHANGE LAYER,ROW,COL MAX. CHANGE LAYER,ROW,COL MAX. CHANGE LAYER,ROW,COL MAX. CHANGE LAYER,ROW,COL
 ------------------------------------------------------------------------------------------------------------------------------------
   0.2440E-01 (  2,  1, 79)  0.5629E-03 (  2,  1, 79)  0.2331E-04 (  3,  1, 77)  0.1174E-05 (  3,  1, 75)  0.2881E-07 (  4,  1, 75)


                                          ================================================
                                                         FROM TIME =   2380.0     TO    2390.0    

 
 SOLVING FOR HEAD 
 FLOW MODEL IS TRANSIENT
 FLOW MODEL CONTAINS CONSTANT-HEAD CELLS


 MAXIMUM STEPSIZE DURING WHICH ANY PARTICLE CANNOT MOVE MORE THAN ONE CELL
 =  5.502    (WHEN MIN. R.F.=1)  AT K=   5, I=   1, J=  73

 MAXIMUM STEPSIZE WHICH MEETS STABILITY CRITERION OF THE ADVECTION TERM
 (FOR PURE FINITE-DIFFERENCE OPTION, MIXELM=0) 
 =  3.714    (WHEN MIN. R.F.=1)  AT K=   2, I=   1, J=  78


 TOTAL NUMBER OF POINT SOURCES/SINKS PRESENT IN THE FLOW MODEL =    62

 MAXIMUM STEPSIZE WHICH MEETS STABILITY CRITERION OF THE SINK & SOURCE TERM
 =  789.2    (WHEN MIN. R.F.=1)  AT K=   2, I=   1, J=   1

 MAXIMUM STEPSIZE WHICH MEETS STABILITY CRITERION OF THE DISPERSION TERM
 =  20.29    (WHEN MIN. R.F.=1)  AT K=   1, I=   1, J=  31


     1 CALLS TO GCG PACKAGE FOR TRANSPORT TIME STEP   1 IN FLOW TIME STEP 239 STRESS PERIOD   1
     6 TOTAL ITERATIONS

 NO OUTPUT CONTROL FOR STRESS PERIOD    1   TIME STEP 239
 
 SOLVING FOR HEAD 
 FLOW MODEL IS TRANSIENT
 FLOW MODEL CONTAINS CONSTANT-HEAD CELLS


 MAXIMUM STEPSIZE DURING WHICH ANY PARTICLE CANNOT MOVE MORE THAN ONE CELL
 =  5.602    (WHEN MIN. R.F.=1)  AT K=   6, I=   1, J=  73

 MAXIMUM STEPSIZE WHICH MEETS STABILITY CRITERION OF THE ADVECTION TERM
 (FOR PURE FINITE-DIFFERENCE OPTION, MIXELM=0) 
 =  3.900    (WHEN MIN. R.F.=1)  AT K=   2, I=   1, J=  40


 TOTAL NUMBER OF POINT SOURCES/SINKS PRESENT IN THE FLOW MODEL =    62

 MAXIMUM STEPSIZE WHICH MEETS STABILITY CRITERION OF THE SINK & SOURCE TERM
 =  691.8    (WHEN MIN. R.F.=1)  AT K=   2, I=   1, J=   1

 MAXIMUM STEPSIZE WHICH MEETS STABILITY CRITERION OF THE DISPERSION TERM
 =  20.29    (WHEN MIN. R.F.=1)  AT K=   1, I=   1, J=  31
     1 CALLS TO GCG PACKAGE FOR TRANSPORT TIME STEP   2 IN FLOW TIME STEP 239 STRESS PERIOD   1
     6 TOTAL ITERATIONS
 
 SOLVING FOR HEAD 
 FLOW MODEL IS TRANSIENT
 FLOW MODEL CONTAINS CONSTANT-HEAD CELLS


 MAXIMUM STEPSIZE DURING WHICH ANY PARTICLE CANNOT MOVE MORE THAN ONE CELL
 =  5.662    (WHEN MIN. R.F.=1)  AT K=   4, I=   1, J=  60

 MAXIMUM STEPSIZE WHICH MEETS STABILITY CRITERION OF THE ADVECTION TERM
 (FOR PURE FINITE-DIFFERENCE OPTION, MIXELM=0) 
 =  3.677    (WHEN MIN. R.F.=1)  AT K=   2, I=   1, J=  77


 TOTAL NUMBER OF POINT SOURCES/SINKS PRESENT IN THE FLOW MODEL =    62

 MAXIMUM STEPSIZE WHICH MEETS STABILITY CRITERION OF THE SINK & SOURCE TERM
 =  703.3    (WHEN MIN. R.F.=1)  AT K=   2, I=   1, J=   1

 MAXIMUM STEPSIZE WHICH MEETS STABILITY CRITERION OF THE DISPERSION TERM
 =  20.29    (WHEN MIN. R.F.=1)  AT K=   1, I=   1, J=  31
     1 CALLS TO GCG PACKAGE FOR TRANSPORT TIME STEP   3 IN FLOW TIME STEP 239 STRESS PERIOD   1
     6 TOTAL ITERATIONS
 
 SOLVING FOR HEAD 
 FLOW MODEL IS TRANSIENT
 FLOW MODEL CONTAINS CONSTANT-HEAD CELLS


 MAXIMUM STEPSIZE DURING WHICH ANY PARTICLE CANNOT MOVE MORE THAN ONE CELL
 =  5.663    (WHEN MIN. R.F.=1)  AT K=   4, I=   1, J=  60

 MAXIMUM STEPSIZE WHICH MEETS STABILITY CRITERION OF THE ADVECTION TERM
 (FOR PURE FINITE-DIFFERENCE OPTION, MIXELM=0) 
 =  3.567    (WHEN MIN. R.F.=1)  AT K=   2, I=   1, J=  77


 TOTAL NUMBER OF POINT SOURCES/SINKS PRESENT IN THE FLOW MODEL =    62

 MAXIMUM STEPSIZE WHICH MEETS STABILITY CRITERION OF THE SINK & SOURCE TERM
 =  677.2    (WHEN MIN. R.F.=1)  AT K=   2, I=   1, J=   1

 MAXIMUM STEPSIZE WHICH MEETS STABILITY CRITERION OF THE DISPERSION TERM
 =  20.29    (WHEN MIN. R.F.=1)  AT K=   1, I=   1, J=  31
     1 CALLS TO GCG PACKAGE FOR TRANSPORT TIME STEP   4 IN FLOW TIME STEP 239 STRESS PERIOD   1
     5 TOTAL ITERATIONS
  MAXIMUM CONCENTRATION CHANGES FOR EACH ITERATION:
  MAX. CHANGE LAYER,ROW,COL MAX. CHANGE LAYER,ROW,COL MAX. CHANGE LAYER,ROW,COL MAX. CHANGE LAYER,ROW,COL MAX. CHANGE LAYER,ROW,COL
 ------------------------------------------------------------------------------------------------------------------------------------
   0.2018E-01 (  2,  1, 39)  0.5095E-03 (  2,  1, 78)  0.1508E-04 (  2,  1, 79)  0.5355E-06 (  3,  1, 79)  0.2072E-07 (  3,  1, 76)


                                          ================================================
                                                         FROM TIME =   2390.0     TO    2400.0    

 
 SOLVING FOR HEAD 
 FLOW MODEL IS TRANSIENT
 FLOW MODEL CONTAINS CONSTANT-HEAD CELLS


 MAXIMUM STEPSIZE DURING WHICH ANY PARTICLE CANNOT MOVE MORE THAN ONE CELL
 =  5.666    (WHEN MIN. R.F.=1)  AT K=   4, I=   1, J=  60

 MAXIMUM STEPSIZE WHICH MEETS STABILITY CRITERION OF THE ADVECTION TERM
 (FOR PURE FINITE-DIFFERENCE OPTION, MIXELM=0) 
 =  3.574    (WHEN MIN. R.F.=1)  AT K=   2, I=   1, J=  77


 TOTAL NUMBER OF POINT SOURCES/SINKS PRESENT IN THE FLOW MODEL =    62

 MAXIMUM STEPSIZE WHICH MEETS STABILITY CRITERION OF THE SINK & SOURCE TERM
 =  845.5    (WHEN MIN. R.F.=1)  AT K=   2, I=   1, J=   1

 MAXIMUM STEPSIZE WHICH MEETS STABILITY CRITERION OF THE DISPERSION TERM
 =  20.29    (WHEN MIN. R.F.=1)  AT K=   1, I=   1, J=  31


     1 CALLS TO GCG PACKAGE FOR TRANSPORT TIME STEP   1 IN FLOW TIME STEP 240 STRESS PERIOD   1
     6 TOTAL ITERATIONS

 NO OUTPUT CONTROL FOR STRESS PERIOD    1   TIME STEP 240
 
 SOLVING FOR HEAD 
 FLOW MODEL IS TRANSIENT
 FLOW MODEL CONTAINS CONSTANT-HEAD CELLS


 MAXIMUM STEPSIZE DURING WHICH ANY PARTICLE CANNOT MOVE MORE THAN ONE CELL
 =  5.668    (WHEN MIN. R.F.=1)  AT K=   4, I=   1, J=  60

 MAXIMUM STEPSIZE WHICH MEETS STABILITY CRITERION OF THE ADVECTION TERM
 (FOR PURE FINITE-DIFFERENCE OPTION, MIXELM=0) 
 =  3.659    (WHEN MIN. R.F.=1)  AT K=   2, I=   1, J=  77


 TOTAL NUMBER OF POINT SOURCES/SINKS PRESENT IN THE FLOW MODEL =    62

 MAXIMUM STEPSIZE WHICH MEETS STABILITY CRITERION OF THE SINK & SOURCE TERM
 =  765.7    (WHEN MIN. R.F.=1)  AT K=   2, I=   1, J=   1

 MAXIMUM STEPSIZE WHICH MEETS STABILITY CRITERION OF THE DISPERSION TERM
 =  20.29    (WHEN MIN. R.F.=1)  AT K=   1, I=   1, J=  31
     1 CALLS TO GCG PACKAGE FOR TRANSPORT TIME STEP   2 IN FLOW TIME STEP 240 STRESS PERIOD   1
     6 TOTAL ITERATIONS
 
 SOLVING FOR HEAD 
 FLOW MODEL IS TRANSIENT
 FLOW MODEL CONTAINS CONSTANT-HEAD CELLS


 MAXIMUM STEPSIZE DURING WHICH ANY PARTICLE CANNOT MOVE MORE THAN ONE CELL
 =  5.669    (WHEN MIN. R.F.=1)  AT K=   4, I=   1, J=  60

 MAXIMUM STEPSIZE WHICH MEETS STABILITY CRITERION OF THE ADVECTION TERM
 (FOR PURE FINITE-DIFFERENCE OPTION, MIXELM=0) 
 =  3.597    (WHEN MIN. R.F.=1)  AT K=   2, I=   1, J=  41


 TOTAL NUMBER OF POINT SOURCES/SINKS PRESENT IN THE FLOW MODEL =    62

 MAXIMUM STEPSIZE WHICH MEETS STABILITY CRITERION OF THE SINK & SOURCE TERM
 =  732.7    (WHEN MIN. R.F.=1)  AT K=   2, I=   1, J=   1

 MAXIMUM STEPSIZE WHICH MEETS STABILITY CRITERION OF THE DISPERSION TERM
 =  20.29    (WHEN MIN. R.F.=1)  AT K=   1, I=   1, J=  31
     1 CALLS TO GCG PACKAGE FOR TRANSPORT TIME STEP   3 IN FLOW TIME STEP 240 STRESS PERIOD   1
     6 TOTAL ITERATIONS
 
 SOLVING FOR HEAD 
 FLOW MODEL IS TRANSIENT
 FLOW MODEL CONTAINS CONSTANT-HEAD CELLS


 MAXIMUM STEPSIZE DURING WHICH ANY PARTICLE CANNOT MOVE MORE THAN ONE CELL
 =  5.515    (WHEN MIN. R.F.=1)  AT K=   4, I=   1, J=  48

 MAXIMUM STEPSIZE WHICH MEETS STABILITY CRITERION OF THE ADVECTION TERM
 (FOR PURE FINITE-DIFFERENCE OPTION, MIXELM=0) 
 =  3.633    (WHEN MIN. R.F.=1)  AT K=   2, I=   1, J=  41


 TOTAL NUMBER OF POINT SOURCES/SINKS PRESENT IN THE FLOW MODEL =    62

 MAXIMUM STEPSIZE WHICH MEETS STABILITY CRITERION OF THE SINK & SOURCE TERM
 =  702.1    (WHEN MIN. R.F.=1)  AT K=   2, I=   1, J= 120

 MAXIMUM STEPSIZE WHICH MEETS STABILITY CRITERION OF THE DISPERSION TERM
 =  20.29    (WHEN MIN. R.F.=1)  AT K=   1, I=   1, J=  31
     1 CALLS TO GCG PACKAGE FOR TRANSPORT TIME STEP   4 IN FLOW TIME STEP 240 STRESS PERIOD   1
     5 TOTAL ITERATIONS
  MAXIMUM CONCENTRATION CHANGES FOR EACH ITERATION:
  MAX. CHANGE LAYER,ROW,COL MAX. CHANGE LAYER,ROW,COL MAX. CHANGE LAYER,ROW,COL MAX. CHANGE LAYER,ROW,COL MAX. CHANGE LAYER,ROW,COL
 ------------------------------------------------------------------------------------------------------------------------------------
   0.2202E-01 (  2,  1, 78)  0.8115E-03 (  2,  1, 76)  0.3375E-04 (  3,  1, 42)  0.1164E-05 (  4,  1, 42)  0.4004E-07 (  4,  1, 43)


                                          ================================================
                                                         FROM TIME =   2400.0     TO    2410.0    

 
 SOLVING FOR HEAD 
 FLOW MODEL IS TRANSIENT
 FLOW MODEL CONTAINS CONSTANT-HEAD CELLS


 MAXIMUM STEPSIZE DURING WHICH ANY PARTICLE CANNOT MOVE MORE THAN ONE CELL
 =  5.399    (WHEN MIN. R.F.=1)  AT K=   4, I=   1, J=  48

 MAXIMUM STEPSIZE WHICH MEETS STABILITY CRITERION OF THE ADVECTION TERM
 (FOR PURE FINITE-DIFFERENCE OPTION, MIXELM=0) 
 =  3.768    (WHEN MIN. R.F.=1)  AT K=   2, I=   1, J=  41


 TOTAL NUMBER OF POINT SOURCES/SINKS PRESENT IN THE FLOW MODEL =    62

 MAXIMUM STEPSIZE WHICH MEETS STABILITY CRITERION OF THE SINK & SOURCE TERM
 =  768.9    (WHEN MIN. R.F.=1)  AT K=   2, I=   1, J= 120

 MAXIMUM STEPSIZE WHICH MEETS STABILITY CRITERION OF THE DISPERSION TERM
 =  20.29    (WHEN MIN. R.F.=1)  AT K=   1, I=   1, J=  31


     1 CALLS TO GCG PACKAGE FOR TRANSPORT TIME STEP   1 IN FLOW TIME STEP 241 STRESS PERIOD   1
     6 TOTAL ITERATIONS

 NO OUTPUT CONTROL FOR STRESS PERIOD    1   TIME STEP 241
 
 SOLVING FOR HEAD 
 FLOW MODEL IS TRANSIENT
 FLOW MODEL CONTAINS CONSTANT-HEAD CELLS


 MAXIMUM STEPSIZE DURING WHICH ANY PARTICLE CANNOT MOVE MORE THAN ONE CELL
 =  5.304    (WHEN MIN. R.F.=1)  AT K=   4, I=   1, J=  48

 MAXIMUM STEPSIZE WHICH MEETS STABILITY CRITERION OF THE ADVECTION TERM
 (FOR PURE FINITE-DIFFERENCE OPTION, MIXELM=0) 
 =  3.799    (WHEN MIN. R.F.=1)  AT K=   2, I=   1, J=  42


 TOTAL NUMBER OF POINT SOURCES/SINKS PRESENT IN THE FLOW MODEL =    62

 MAXIMUM STEPSIZE WHICH MEETS STABILITY CRITERION OF THE SINK & SOURCE TERM
 =  710.8    (WHEN MIN. R.F.=1)  AT K=   2, I=   1, J= 120

 MAXIMUM STEPSIZE WHICH MEETS STABILITY CRITERION OF THE DISPERSION TERM
 =  20.29    (WHEN MIN. R.F.=1)  AT K=   1, I=   1, J=  31
     1 CALLS TO GCG PACKAGE FOR TRANSPORT TIME STEP   2 IN FLOW TIME STEP 241 STRESS PERIOD   1
     6 TOTAL ITERATIONS
 
 SOLVING FOR HEAD 
 FLOW MODEL IS TRANSIENT
 FLOW MODEL CONTAINS CONSTANT-HEAD CELLS


 MAXIMUM STEPSIZE DURING WHICH ANY PARTICLE CANNOT MOVE MORE THAN ONE CELL
 =  5.284    (WHEN MIN. R.F.=1)  AT K=   4, I=   1, J=  48

 MAXIMUM STEPSIZE WHICH MEETS STABILITY CRITERION OF THE ADVECTION TERM
 (FOR PURE FINITE-DIFFERENCE OPTION, MIXELM=0) 
 =  3.595    (WHEN MIN. R.F.=1)  AT K=   2, I=   1, J=  42


 TOTAL NUMBER OF POINT SOURCES/SINKS PRESENT IN THE FLOW MODEL =    62

 MAXIMUM STEPSIZE WHICH MEETS STABILITY CRITERION OF THE SINK & SOURCE TERM
 =  767.9    (WHEN MIN. R.F.=1)  AT K=   2, I=   1, J= 120

 MAXIMUM STEPSIZE WHICH MEETS STABILITY CRITERION OF THE DISPERSION TERM
 =  20.29    (WHEN MIN. R.F.=1)  AT K=   1, I=   1, J=  31
     1 CALLS TO GCG PACKAGE FOR TRANSPORT TIME STEP   3 IN FLOW TIME STEP 241 STRESS PERIOD   1
     6 TOTAL ITERATIONS
 
 SOLVING FOR HEAD 
 FLOW MODEL IS TRANSIENT
 FLOW MODEL CONTAINS CONSTANT-HEAD CELLS


 MAXIMUM STEPSIZE DURING WHICH ANY PARTICLE CANNOT MOVE MORE THAN ONE CELL
 =  5.340    (WHEN MIN. R.F.=1)  AT K=   4, I=   1, J=  48

 MAXIMUM STEPSIZE WHICH MEETS STABILITY CRITERION OF THE ADVECTION TERM
 (FOR PURE FINITE-DIFFERENCE OPTION, MIXELM=0) 
 =  3.561    (WHEN MIN. R.F.=1)  AT K=   2, I=   1, J=  42


 TOTAL NUMBER OF POINT SOURCES/SINKS PRESENT IN THE FLOW MODEL =    62

 MAXIMUM STEPSIZE WHICH MEETS STABILITY CRITERION OF THE SINK & SOURCE TERM
 =  744.3    (WHEN MIN. R.F.=1)  AT K=   2, I=   1, J= 120

 MAXIMUM STEPSIZE WHICH MEETS STABILITY CRITERION OF THE DISPERSION TERM
 =  20.29    (WHEN MIN. R.F.=1)  AT K=   1, I=   1, J=  31
     1 CALLS TO GCG PACKAGE FOR TRANSPORT TIME STEP   4 IN FLOW TIME STEP 241 STRESS PERIOD   1
     5 TOTAL ITERATIONS
  MAXIMUM CONCENTRATION CHANGES FOR EACH ITERATION:
  MAX. CHANGE LAYER,ROW,COL MAX. CHANGE LAYER,ROW,COL MAX. CHANGE LAYER,ROW,COL MAX. CHANGE LAYER,ROW,COL MAX. CHANGE LAYER,ROW,COL
 ------------------------------------------------------------------------------------------------------------------------------------
   0.2106E-01 (  2,  1, 77)  0.4379E-03 (  2,  1, 77)  0.1615E-04 (  2,  1, 78)  0.5967E-06 (  3,  1, 78)  0.1549E-07 (  4,  1, 60)


                                          ================================================
                                                         FROM TIME =   2410.0     TO    2420.0    

 
 SOLVING FOR HEAD 
 FLOW MODEL IS TRANSIENT
 FLOW MODEL CONTAINS CONSTANT-HEAD CELLS


 MAXIMUM STEPSIZE DURING WHICH ANY PARTICLE CANNOT MOVE MORE THAN ONE CELL
 =  5.397    (WHEN MIN. R.F.=1)  AT K=   4, I=   1, J=  48

 MAXIMUM STEPSIZE WHICH MEETS STABILITY CRITERION OF THE ADVECTION TERM
 (FOR PURE FINITE-DIFFERENCE OPTION, MIXELM=0) 
 =  3.595    (WHEN MIN. R.F.=1)  AT K=   2, I=   1, J=  42


 TOTAL NUMBER OF POINT SOURCES/SINKS PRESENT IN THE FLOW MODEL =    62

 MAXIMUM STEPSIZE WHICH MEETS STABILITY CRITERION OF THE SINK & SOURCE TERM
 =  848.0    (WHEN MIN. R.F.=1)  AT K=   2, I=   1, J= 120

 MAXIMUM STEPSIZE WHICH MEETS STABILITY CRITERION OF THE DISPERSION TERM
 =  20.29    (WHEN MIN. R.F.=1)  AT K=   1, I=   1, J=  31


     1 CALLS TO GCG PACKAGE FOR TRANSPORT TIME STEP   1 IN FLOW TIME STEP 242 STRESS PERIOD   1
     6 TOTAL ITERATIONS

 NO OUTPUT CONTROL FOR STRESS PERIOD    1   TIME STEP 242
 
 SOLVING FOR HEAD 
 FLOW MODEL IS TRANSIENT
 FLOW MODEL CONTAINS CONSTANT-HEAD CELLS


 MAXIMUM STEPSIZE DURING WHICH ANY PARTICLE CANNOT MOVE MORE THAN ONE CELL
 =  5.460    (WHEN MIN. R.F.=1)  AT K=   5, I=   1, J=  48

 MAXIMUM STEPSIZE WHICH MEETS STABILITY CRITERION OF THE ADVECTION TERM
 (FOR PURE FINITE-DIFFERENCE OPTION, MIXELM=0) 
 =  3.778    (WHEN MIN. R.F.=1)  AT K=   2, I=   1, J=  42


 TOTAL NUMBER OF POINT SOURCES/SINKS PRESENT IN THE FLOW MODEL =    62

 MAXIMUM STEPSIZE WHICH MEETS STABILITY CRITERION OF THE SINK & SOURCE TERM
 =  738.3    (WHEN MIN. R.F.=1)  AT K=   2, I=   1, J= 120

 MAXIMUM STEPSIZE WHICH MEETS STABILITY CRITERION OF THE DISPERSION TERM
 =  20.29    (WHEN MIN. R.F.=1)  AT K=   1, I=   1, J=  31
     1 CALLS TO GCG PACKAGE FOR TRANSPORT TIME STEP   2 IN FLOW TIME STEP 242 STRESS PERIOD   1
     6 TOTAL ITERATIONS
 
 SOLVING FOR HEAD 
 FLOW MODEL IS TRANSIENT
 FLOW MODEL CONTAINS CONSTANT-HEAD CELLS


 MAXIMUM STEPSIZE DURING WHICH ANY PARTICLE CANNOT MOVE MORE THAN ONE CELL
 =  5.548    (WHEN MIN. R.F.=1)  AT K=   5, I=   1, J=  48

 MAXIMUM STEPSIZE WHICH MEETS STABILITY CRITERION OF THE ADVECTION TERM
 (FOR PURE FINITE-DIFFERENCE OPTION, MIXELM=0) 
 =  3.871    (WHEN MIN. R.F.=1)  AT K=   2, I=   1, J=  43


 TOTAL NUMBER OF POINT SOURCES/SINKS PRESENT IN THE FLOW MODEL =    62

 MAXIMUM STEPSIZE WHICH MEETS STABILITY CRITERION OF THE SINK & SOURCE TERM
 =  713.8    (WHEN MIN. R.F.=1)  AT K=   2, I=   1, J= 120

 MAXIMUM STEPSIZE WHICH MEETS STABILITY CRITERION OF THE DISPERSION TERM
 =  20.29    (WHEN MIN. R.F.=1)  AT K=   1, I=   1, J=  31
     1 CALLS TO GCG PACKAGE FOR TRANSPORT TIME STEP   3 IN FLOW TIME STEP 242 STRESS PERIOD   1
     6 TOTAL ITERATIONS
 
 SOLVING FOR HEAD 
 FLOW MODEL IS TRANSIENT
 FLOW MODEL CONTAINS CONSTANT-HEAD CELLS


 MAXIMUM STEPSIZE DURING WHICH ANY PARTICLE CANNOT MOVE MORE THAN ONE CELL
 =  5.678    (WHEN MIN. R.F.=1)  AT K=   4, I=   1, J=  60

 MAXIMUM STEPSIZE WHICH MEETS STABILITY CRITERION OF THE ADVECTION TERM
 (FOR PURE FINITE-DIFFERENCE OPTION, MIXELM=0) 
 =  3.657    (WHEN MIN. R.F.=1)  AT K=   2, I=   1, J=  43


 TOTAL NUMBER OF POINT SOURCES/SINKS PRESENT IN THE FLOW MODEL =    62

 MAXIMUM STEPSIZE WHICH MEETS STABILITY CRITERION OF THE SINK & SOURCE TERM
 =  700.3    (WHEN MIN. R.F.=1)  AT K=   2, I=   1, J= 120

 MAXIMUM STEPSIZE WHICH MEETS STABILITY CRITERION OF THE DISPERSION TERM
 =  20.29    (WHEN MIN. R.F.=1)  AT K=   1, I=   1, J=  31
     1 CALLS TO GCG PACKAGE FOR TRANSPORT TIME STEP   4 IN FLOW TIME STEP 242 STRESS PERIOD   1
     5 TOTAL ITERATIONS
  MAXIMUM CONCENTRATION CHANGES FOR EACH ITERATION:
  MAX. CHANGE LAYER,ROW,COL MAX. CHANGE LAYER,ROW,COL MAX. CHANGE LAYER,ROW,COL MAX. CHANGE LAYER,ROW,COL MAX. CHANGE LAYER,ROW,COL
 ------------------------------------------------------------------------------------------------------------------------------------
   0.2334E-01 (  2,  1, 83)  0.6714E-03 (  2,  1, 83)  0.2228E-04 (  2,  1, 84)  0.1286E-05 (  3,  1, 46)  0.3964E-07 (  4,  1, 46)


                                          ================================================
                                                         FROM TIME =   2420.0     TO    2430.0    

 
 SOLVING FOR HEAD 
 FLOW MODEL IS TRANSIENT
 FLOW MODEL CONTAINS CONSTANT-HEAD CELLS


 MAXIMUM STEPSIZE DURING WHICH ANY PARTICLE CANNOT MOVE MORE THAN ONE CELL
 =  5.680    (WHEN MIN. R.F.=1)  AT K=   4, I=   1, J=  60

 MAXIMUM STEPSIZE WHICH MEETS STABILITY CRITERION OF THE ADVECTION TERM
 (FOR PURE FINITE-DIFFERENCE OPTION, MIXELM=0) 
 =  3.615    (WHEN MIN. R.F.=1)  AT K=   2, I=   1, J=  43


 TOTAL NUMBER OF POINT SOURCES/SINKS PRESENT IN THE FLOW MODEL =    62

 MAXIMUM STEPSIZE WHICH MEETS STABILITY CRITERION OF THE SINK & SOURCE TERM
 =  776.6    (WHEN MIN. R.F.=1)  AT K=   2, I=   1, J= 120

 MAXIMUM STEPSIZE WHICH MEETS STABILITY CRITERION OF THE DISPERSION TERM
 =  20.29    (WHEN MIN. R.F.=1)  AT K=   1, I=   1, J=  31


     1 CALLS TO GCG PACKAGE FOR TRANSPORT TIME STEP   1 IN FLOW TIME STEP 243 STRESS PERIOD   1
     6 TOTAL ITERATIONS

 NO OUTPUT CONTROL FOR STRESS PERIOD    1   TIME STEP 243
 
 SOLVING FOR HEAD 
 FLOW MODEL IS TRANSIENT
 FLOW MODEL CONTAINS CONSTANT-HEAD CELLS


 MAXIMUM STEPSIZE DURING WHICH ANY PARTICLE CANNOT MOVE MORE THAN ONE CELL
 =  5.680    (WHEN MIN. R.F.=1)  AT K=   4, I=   1, J=  60

 MAXIMUM STEPSIZE WHICH MEETS STABILITY CRITERION OF THE ADVECTION TERM
 (FOR PURE FINITE-DIFFERENCE OPTION, MIXELM=0) 
 =  3.649    (WHEN MIN. R.F.=1)  AT K=   2, I=   1, J=  43


 TOTAL NUMBER OF POINT SOURCES/SINKS PRESENT IN THE FLOW MODEL =    62

 MAXIMUM STEPSIZE WHICH MEETS STABILITY CRITERION OF THE SINK & SOURCE TERM
 =  683.1    (WHEN MIN. R.F.=1)  AT K=   2, I=   1, J= 120

 MAXIMUM STEPSIZE WHICH MEETS STABILITY CRITERION OF THE DISPERSION TERM
 =  20.29    (WHEN MIN. R.F.=1)  AT K=   1, I=   1, J=  31
     1 CALLS TO GCG PACKAGE FOR TRANSPORT TIME STEP   2 IN FLOW TIME STEP 243 STRESS PERIOD   1
     6 TOTAL ITERATIONS
 
 SOLVING FOR HEAD 
 FLOW MODEL IS TRANSIENT
 FLOW MODEL CONTAINS CONSTANT-HEAD CELLS


 MAXIMUM STEPSIZE DURING WHICH ANY PARTICLE CANNOT MOVE MORE THAN ONE CELL
 =  5.679    (WHEN MIN. R.F.=1)  AT K=   4, I=   1, J=  60

 MAXIMUM STEPSIZE WHICH MEETS STABILITY CRITERION OF THE ADVECTION TERM
 (FOR PURE FINITE-DIFFERENCE OPTION, MIXELM=0) 
 =  3.809    (WHEN MIN. R.F.=1)  AT K=   2, I=   1, J=  43


 TOTAL NUMBER OF POINT SOURCES/SINKS PRESENT IN THE FLOW MODEL =    62

 MAXIMUM STEPSIZE WHICH MEETS STABILITY CRITERION OF THE SINK & SOURCE TERM
 =  643.7    (WHEN MIN. R.F.=1)  AT K=   2, I=   1, J= 120

 MAXIMUM STEPSIZE WHICH MEETS STABILITY CRITERION OF THE DISPERSION TERM
 =  20.29    (WHEN MIN. R.F.=1)  AT K=   1, I=   1, J=  31
     1 CALLS TO GCG PACKAGE FOR TRANSPORT TIME STEP   3 IN FLOW TIME STEP 243 STRESS PERIOD   1
     6 TOTAL ITERATIONS
 
 SOLVING FOR HEAD 
 FLOW MODEL IS TRANSIENT
 FLOW MODEL CONTAINS CONSTANT-HEAD CELLS


 MAXIMUM STEPSIZE DURING WHICH ANY PARTICLE CANNOT MOVE MORE THAN ONE CELL
 =  5.678    (WHEN MIN. R.F.=1)  AT K=   4, I=   1, J=  60

 MAXIMUM STEPSIZE WHICH MEETS STABILITY CRITERION OF THE ADVECTION TERM
 (FOR PURE FINITE-DIFFERENCE OPTION, MIXELM=0) 
 =  3.792    (WHEN MIN. R.F.=1)  AT K=   2, I=   1, J=  81


 TOTAL NUMBER OF POINT SOURCES/SINKS PRESENT IN THE FLOW MODEL =    62

 MAXIMUM STEPSIZE WHICH MEETS STABILITY CRITERION OF THE SINK & SOURCE TERM
 =  621.6    (WHEN MIN. R.F.=1)  AT K=   2, I=   1, J= 120

 MAXIMUM STEPSIZE WHICH MEETS STABILITY CRITERION OF THE DISPERSION TERM
 =  20.29    (WHEN MIN. R.F.=1)  AT K=   1, I=   1, J=  31
     1 CALLS TO GCG PACKAGE FOR TRANSPORT TIME STEP   4 IN FLOW TIME STEP 243 STRESS PERIOD   1
     5 TOTAL ITERATIONS
  MAXIMUM CONCENTRATION CHANGES FOR EACH ITERATION:
  MAX. CHANGE LAYER,ROW,COL MAX. CHANGE LAYER,ROW,COL MAX. CHANGE LAYER,ROW,COL MAX. CHANGE LAYER,ROW,COL MAX. CHANGE LAYER,ROW,COL
 ------------------------------------------------------------------------------------------------------------------------------------
   0.2188E-01 (  2,  1, 76)  0.6658E-03 (  2,  1, 82)  0.2298E-04 (  2,  1, 83)  0.7671E-06 (  3,  1, 83)  0.3110E-07 (  5,  1, 41)


                                          ================================================
                                                         FROM TIME =   2430.0     TO    2440.0    

 
 SOLVING FOR HEAD 
 FLOW MODEL IS TRANSIENT
 FLOW MODEL CONTAINS CONSTANT-HEAD CELLS


 MAXIMUM STEPSIZE DURING WHICH ANY PARTICLE CANNOT MOVE MORE THAN ONE CELL
 =  5.681    (WHEN MIN. R.F.=1)  AT K=   4, I=   1, J=  60

 MAXIMUM STEPSIZE WHICH MEETS STABILITY CRITERION OF THE ADVECTION TERM
 (FOR PURE FINITE-DIFFERENCE OPTION, MIXELM=0) 
 =  3.734    (WHEN MIN. R.F.=1)  AT K=   2, I=   1, J=  81


 TOTAL NUMBER OF POINT SOURCES/SINKS PRESENT IN THE FLOW MODEL =    62

 MAXIMUM STEPSIZE WHICH MEETS STABILITY CRITERION OF THE SINK & SOURCE TERM
 =  682.2    (WHEN MIN. R.F.=1)  AT K=   2, I=   1, J= 120

 MAXIMUM STEPSIZE WHICH MEETS STABILITY CRITERION OF THE DISPERSION TERM
 =  20.29    (WHEN MIN. R.F.=1)  AT K=   1, I=   1, J=  31


     1 CALLS TO GCG PACKAGE FOR TRANSPORT TIME STEP   1 IN FLOW TIME STEP 244 STRESS PERIOD   1
     6 TOTAL ITERATIONS

 NO OUTPUT CONTROL FOR STRESS PERIOD    1   TIME STEP 244
 
 SOLVING FOR HEAD 
 FLOW MODEL IS TRANSIENT
 FLOW MODEL CONTAINS CONSTANT-HEAD CELLS


 MAXIMUM STEPSIZE DURING WHICH ANY PARTICLE CANNOT MOVE MORE THAN ONE CELL
 =  5.680    (WHEN MIN. R.F.=1)  AT K=   4, I=   1, J=  60

 MAXIMUM STEPSIZE WHICH MEETS STABILITY CRITERION OF THE ADVECTION TERM
 (FOR PURE FINITE-DIFFERENCE OPTION, MIXELM=0) 
 =  3.718    (WHEN MIN. R.F.=1)  AT K=   2, I=   1, J=  44


 TOTAL NUMBER OF POINT SOURCES/SINKS PRESENT IN THE FLOW MODEL =    62

 MAXIMUM STEPSIZE WHICH MEETS STABILITY CRITERION OF THE SINK & SOURCE TERM
 =  585.2    (WHEN MIN. R.F.=1)  AT K=   2, I=   1, J= 120

 MAXIMUM STEPSIZE WHICH MEETS STABILITY CRITERION OF THE DISPERSION TERM
 =  20.29    (WHEN MIN. R.F.=1)  AT K=   1, I=   1, J=  31
     1 CALLS TO GCG PACKAGE FOR TRANSPORT TIME STEP   2 IN FLOW TIME STEP 244 STRESS PERIOD   1
     6 TOTAL ITERATIONS
 
 SOLVING FOR HEAD 
 FLOW MODEL IS TRANSIENT
 FLOW MODEL CONTAINS CONSTANT-HEAD CELLS


 MAXIMUM STEPSIZE DURING WHICH ANY PARTICLE CANNOT MOVE MORE THAN ONE CELL
 =  5.679    (WHEN MIN. R.F.=1)  AT K=   4, I=   1, J=  60

 MAXIMUM STEPSIZE WHICH MEETS STABILITY CRITERION OF THE ADVECTION TERM
 (FOR PURE FINITE-DIFFERENCE OPTION, MIXELM=0) 
 =  3.717    (WHEN MIN. R.F.=1)  AT K=   2, I=   1, J=  44


 TOTAL NUMBER OF POINT SOURCES/SINKS PRESENT IN THE FLOW MODEL =    62

 MAXIMUM STEPSIZE WHICH MEETS STABILITY CRITERION OF THE SINK & SOURCE TERM
 =  536.2    (WHEN MIN. R.F.=1)  AT K=   2, I=   1, J= 120

 MAXIMUM STEPSIZE WHICH MEETS STABILITY CRITERION OF THE DISPERSION TERM
 =  20.29    (WHEN MIN. R.F.=1)  AT K=   1, I=   1, J=  31
     1 CALLS TO GCG PACKAGE FOR TRANSPORT TIME STEP   3 IN FLOW TIME STEP 244 STRESS PERIOD   1
     6 TOTAL ITERATIONS
 
 SOLVING FOR HEAD 
 FLOW MODEL IS TRANSIENT
 FLOW MODEL CONTAINS CONSTANT-HEAD CELLS


 MAXIMUM STEPSIZE DURING WHICH ANY PARTICLE CANNOT MOVE MORE THAN ONE CELL
 =  5.679    (WHEN MIN. R.F.=1)  AT K=   4, I=   1, J=  60

 MAXIMUM STEPSIZE WHICH MEETS STABILITY CRITERION OF THE ADVECTION TERM
 (FOR PURE FINITE-DIFFERENCE OPTION, MIXELM=0) 
 =  3.525    (WHEN MIN. R.F.=1)  AT K=   2, I=   1, J=  80


 TOTAL NUMBER OF POINT SOURCES/SINKS PRESENT IN THE FLOW MODEL =    62

 MAXIMUM STEPSIZE WHICH MEETS STABILITY CRITERION OF THE SINK & SOURCE TERM
 =  519.0    (WHEN MIN. R.F.=1)  AT K=   2, I=   1, J= 120

 MAXIMUM STEPSIZE WHICH MEETS STABILITY CRITERION OF THE DISPERSION TERM
 =  20.29    (WHEN MIN. R.F.=1)  AT K=   1, I=   1, J=  31
     1 CALLS TO GCG PACKAGE FOR TRANSPORT TIME STEP   4 IN FLOW TIME STEP 244 STRESS PERIOD   1
     5 TOTAL ITERATIONS
  MAXIMUM CONCENTRATION CHANGES FOR EACH ITERATION:
  MAX. CHANGE LAYER,ROW,COL MAX. CHANGE LAYER,ROW,COL MAX. CHANGE LAYER,ROW,COL MAX. CHANGE LAYER,ROW,COL MAX. CHANGE LAYER,ROW,COL
 ------------------------------------------------------------------------------------------------------------------------------------
   0.1781E-01 (  2,  1, 43)  0.4399E-03 (  2,  1, 81)  0.1385E-04 (  3,  1, 45)  0.4555E-06 (  3,  1, 73)  0.1519E-07 (  4,  1, 73)


                                          ================================================
                                                         FROM TIME =   2440.0     TO    2450.0    

 
 SOLVING FOR HEAD 
 FLOW MODEL IS TRANSIENT
 FLOW MODEL CONTAINS CONSTANT-HEAD CELLS


 MAXIMUM STEPSIZE DURING WHICH ANY PARTICLE CANNOT MOVE MORE THAN ONE CELL
 =  5.638    (WHEN MIN. R.F.=1)  AT K=   4, I=   1, J=  73

 MAXIMUM STEPSIZE WHICH MEETS STABILITY CRITERION OF THE ADVECTION TERM
 (FOR PURE FINITE-DIFFERENCE OPTION, MIXELM=0) 
 =  3.475    (WHEN MIN. R.F.=1)  AT K=   2, I=   1, J=  80


 TOTAL NUMBER OF POINT SOURCES/SINKS PRESENT IN THE FLOW MODEL =    62

 MAXIMUM STEPSIZE WHICH MEETS STABILITY CRITERION OF THE SINK & SOURCE TERM
 =  609.1    (WHEN MIN. R.F.=1)  AT K=   2, I=   1, J= 120

 MAXIMUM STEPSIZE WHICH MEETS STABILITY CRITERION OF THE DISPERSION TERM
 =  20.29    (WHEN MIN. R.F.=1)  AT K=   1, I=   1, J=  31


     1 CALLS TO GCG PACKAGE FOR TRANSPORT TIME STEP   1 IN FLOW TIME STEP 245 STRESS PERIOD   1
     6 TOTAL ITERATIONS

 NO OUTPUT CONTROL FOR STRESS PERIOD    1   TIME STEP 245
 
 SOLVING FOR HEAD 
 FLOW MODEL IS TRANSIENT
 FLOW MODEL CONTAINS CONSTANT-HEAD CELLS


 MAXIMUM STEPSIZE DURING WHICH ANY PARTICLE CANNOT MOVE MORE THAN ONE CELL
 =  5.488    (WHEN MIN. R.F.=1)  AT K=   4, I=   1, J=  73

 MAXIMUM STEPSIZE WHICH MEETS STABILITY CRITERION OF THE ADVECTION TERM
 (FOR PURE FINITE-DIFFERENCE OPTION, MIXELM=0) 
 =  3.471    (WHEN MIN. R.F.=1)  AT K=   2, I=   1, J=  80


 TOTAL NUMBER OF POINT SOURCES/SINKS PRESENT IN THE FLOW MODEL =    62

 MAXIMUM STEPSIZE WHICH MEETS STABILITY CRITERION OF THE SINK & SOURCE TERM
 =  548.2    (WHEN MIN. R.F.=1)  AT K=   2, I=   1, J= 120

 MAXIMUM STEPSIZE WHICH MEETS STABILITY CRITERION OF THE DISPERSION TERM
 =  20.29    (WHEN MIN. R.F.=1)  AT K=   1, I=   1, J=  31
     1 CALLS TO GCG PACKAGE FOR TRANSPORT TIME STEP   2 IN FLOW TIME STEP 245 STRESS PERIOD   1
     6 TOTAL ITERATIONS
 
 SOLVING FOR HEAD 
 FLOW MODEL IS TRANSIENT
 FLOW MODEL CONTAINS CONSTANT-HEAD CELLS


 MAXIMUM STEPSIZE DURING WHICH ANY PARTICLE CANNOT MOVE MORE THAN ONE CELL
 =  5.372    (WHEN MIN. R.F.=1)  AT K=   4, I=   1, J=  73

 MAXIMUM STEPSIZE WHICH MEETS STABILITY CRITERION OF THE ADVECTION TERM
 (FOR PURE FINITE-DIFFERENCE OPTION, MIXELM=0) 
 =  3.685    (WHEN MIN. R.F.=1)  AT K=   2, I=   1, J=  80


 TOTAL NUMBER OF POINT SOURCES/SINKS PRESENT IN THE FLOW MODEL =    62

 MAXIMUM STEPSIZE WHICH MEETS STABILITY CRITERION OF THE SINK & SOURCE TERM
 =  554.1    (WHEN MIN. R.F.=1)  AT K=   2, I=   1, J= 120

 MAXIMUM STEPSIZE WHICH MEETS STABILITY CRITERION OF THE DISPERSION TERM
 =  20.29    (WHEN MIN. R.F.=1)  AT K=   1, I=   1, J=  31
     1 CALLS TO GCG PACKAGE FOR TRANSPORT TIME STEP   3 IN FLOW TIME STEP 245 STRESS PERIOD   1
     6 TOTAL ITERATIONS
 
 SOLVING FOR HEAD 
 FLOW MODEL IS TRANSIENT
 FLOW MODEL CONTAINS CONSTANT-HEAD CELLS


 MAXIMUM STEPSIZE DURING WHICH ANY PARTICLE CANNOT MOVE MORE THAN ONE CELL
 =  5.286    (WHEN MIN. R.F.=1)  AT K=   4, I=   1, J=  73

 MAXIMUM STEPSIZE WHICH MEETS STABILITY CRITERION OF THE ADVECTION TERM
 (FOR PURE FINITE-DIFFERENCE OPTION, MIXELM=0) 
 =  3.635    (WHEN MIN. R.F.=1)  AT K=   2, I=   1, J=  79


 TOTAL NUMBER OF POINT SOURCES/SINKS PRESENT IN THE FLOW MODEL =    62

 MAXIMUM STEPSIZE WHICH MEETS STABILITY CRITERION OF THE SINK & SOURCE TERM
 =  518.3    (WHEN MIN. R.F.=1)  AT K=   2, I=   1, J= 120

 MAXIMUM STEPSIZE WHICH MEETS STABILITY CRITERION OF THE DISPERSION TERM
 =  20.29    (WHEN MIN. R.F.=1)  AT K=   1, I=   1, J=  31
     1 CALLS TO GCG PACKAGE FOR TRANSPORT TIME STEP   4 IN FLOW TIME STEP 245 STRESS PERIOD   1
     5 TOTAL ITERATIONS
  MAXIMUM CONCENTRATION CHANGES FOR EACH ITERATION:
  MAX. CHANGE LAYER,ROW,COL MAX. CHANGE LAYER,ROW,COL MAX. CHANGE LAYER,ROW,COL MAX. CHANGE LAYER,ROW,COL MAX. CHANGE LAYER,ROW,COL
 ------------------------------------------------------------------------------------------------------------------------------------
   0.2641E-01 (  2,  1, 81)  0.9569E-03 (  2,  1, 79)  0.4263E-04 (  3,  1, 79)  0.1927E-05 (  3,  1, 76)  0.7462E-07 (  4,  1, 76)


                                          ================================================
                                                         FROM TIME =   2450.0     TO    2460.0    

 
 SOLVING FOR HEAD 
 FLOW MODEL IS TRANSIENT
 FLOW MODEL CONTAINS CONSTANT-HEAD CELLS


 MAXIMUM STEPSIZE DURING WHICH ANY PARTICLE CANNOT MOVE MORE THAN ONE CELL
 =  5.235    (WHEN MIN. R.F.=1)  AT K=   4, I=   1, J=  73

 MAXIMUM STEPSIZE WHICH MEETS STABILITY CRITERION OF THE ADVECTION TERM
 (FOR PURE FINITE-DIFFERENCE OPTION, MIXELM=0) 
 =  3.481    (WHEN MIN. R.F.=1)  AT K=   2, I=   1, J=  79


 TOTAL NUMBER OF POINT SOURCES/SINKS PRESENT IN THE FLOW MODEL =    62

 MAXIMUM STEPSIZE WHICH MEETS STABILITY CRITERION OF THE SINK & SOURCE TERM
 =  520.5    (WHEN MIN. R.F.=1)  AT K=   2, I=   1, J= 120

 MAXIMUM STEPSIZE WHICH MEETS STABILITY CRITERION OF THE DISPERSION TERM
 =  20.29    (WHEN MIN. R.F.=1)  AT K=   1, I=   1, J=  31


     1 CALLS TO GCG PACKAGE FOR TRANSPORT TIME STEP   1 IN FLOW TIME STEP 246 STRESS PERIOD   1
     6 TOTAL ITERATIONS

 NO OUTPUT CONTROL FOR STRESS PERIOD    1   TIME STEP 246
 
 SOLVING FOR HEAD 
 FLOW MODEL IS TRANSIENT
 FLOW MODEL CONTAINS CONSTANT-HEAD CELLS


 MAXIMUM STEPSIZE DURING WHICH ANY PARTICLE CANNOT MOVE MORE THAN ONE CELL
 =  5.195    (WHEN MIN. R.F.=1)  AT K=   4, I=   1, J=  73

 MAXIMUM STEPSIZE WHICH MEETS STABILITY CRITERION OF THE ADVECTION TERM
 (FOR PURE FINITE-DIFFERENCE OPTION, MIXELM=0) 
 =  3.406    (WHEN MIN. R.F.=1)  AT K=   2, I=   1, J=  79


 TOTAL NUMBER OF POINT SOURCES/SINKS PRESENT IN THE FLOW MODEL =    62

 MAXIMUM STEPSIZE WHICH MEETS STABILITY CRITERION OF THE SINK & SOURCE TERM
 =  502.2    (WHEN MIN. R.F.=1)  AT K=   2, I=   1, J= 120

 MAXIMUM STEPSIZE WHICH MEETS STABILITY CRITERION OF THE DISPERSION TERM
 =  20.29    (WHEN MIN. R.F.=1)  AT K=   1, I=   1, J=  31
     1 CALLS TO GCG PACKAGE FOR TRANSPORT TIME STEP   2 IN FLOW TIME STEP 246 STRESS PERIOD   1
     6 TOTAL ITERATIONS
 
 SOLVING FOR HEAD 
 FLOW MODEL IS TRANSIENT
 FLOW MODEL CONTAINS CONSTANT-HEAD CELLS


 MAXIMUM STEPSIZE DURING WHICH ANY PARTICLE CANNOT MOVE MORE THAN ONE CELL
 =  5.188    (WHEN MIN. R.F.=1)  AT K=   4, I=   1, J=  73

 MAXIMUM STEPSIZE WHICH MEETS STABILITY CRITERION OF THE ADVECTION TERM
 (FOR PURE FINITE-DIFFERENCE OPTION, MIXELM=0) 
 =  3.461    (WHEN MIN. R.F.=1)  AT K=   2, I=   1, J=  79


 TOTAL NUMBER OF POINT SOURCES/SINKS PRESENT IN THE FLOW MODEL =    62

 MAXIMUM STEPSIZE WHICH MEETS STABILITY CRITERION OF THE SINK & SOURCE TERM
 =  523.8    (WHEN MIN. R.F.=1)  AT K=   2, I=   1, J= 120

 MAXIMUM STEPSIZE WHICH MEETS STABILITY CRITERION OF THE DISPERSION TERM
 =  20.29    (WHEN MIN. R.F.=1)  AT K=   1, I=   1, J=  31
     1 CALLS TO GCG PACKAGE FOR TRANSPORT TIME STEP   3 IN FLOW TIME STEP 246 STRESS PERIOD   1
     6 TOTAL ITERATIONS
 
 SOLVING FOR HEAD 
 FLOW MODEL IS TRANSIENT
 FLOW MODEL CONTAINS CONSTANT-HEAD CELLS


 MAXIMUM STEPSIZE DURING WHICH ANY PARTICLE CANNOT MOVE MORE THAN ONE CELL
 =  5.208    (WHEN MIN. R.F.=1)  AT K=   4, I=   1, J=  73

 MAXIMUM STEPSIZE WHICH MEETS STABILITY CRITERION OF THE ADVECTION TERM
 (FOR PURE FINITE-DIFFERENCE OPTION, MIXELM=0) 
 =  3.697    (WHEN MIN. R.F.=1)  AT K=   2, I=   1, J=  79


 TOTAL NUMBER OF POINT SOURCES/SINKS PRESENT IN THE FLOW MODEL =    62

 MAXIMUM STEPSIZE WHICH MEETS STABILITY CRITERION OF THE SINK & SOURCE TERM
 =  518.1    (WHEN MIN. R.F.=1)  AT K=   2, I=   1, J= 120

 MAXIMUM STEPSIZE WHICH MEETS STABILITY CRITERION OF THE DISPERSION TERM
 =  20.29    (WHEN MIN. R.F.=1)  AT K=   1, I=   1, J=  31
     1 CALLS TO GCG PACKAGE FOR TRANSPORT TIME STEP   4 IN FLOW TIME STEP 246 STRESS PERIOD   1
     5 TOTAL ITERATIONS
  MAXIMUM CONCENTRATION CHANGES FOR EACH ITERATION:
  MAX. CHANGE LAYER,ROW,COL MAX. CHANGE LAYER,ROW,COL MAX. CHANGE LAYER,ROW,COL MAX. CHANGE LAYER,ROW,COL MAX. CHANGE LAYER,ROW,COL
 ------------------------------------------------------------------------------------------------------------------------------------
   0.2709E-01 (  2,  1, 80)  0.9518E-03 (  2,  1, 78)  0.4701E-04 (  3,  1, 78)  0.1670E-05 (  4,  1, 78)  0.6813E-07 (  4,  1, 79)


                                          ================================================
                                                         FROM TIME =   2460.0     TO    2470.0    

 
 SOLVING FOR HEAD 
 FLOW MODEL IS TRANSIENT
 FLOW MODEL CONTAINS CONSTANT-HEAD CELLS


 MAXIMUM STEPSIZE DURING WHICH ANY PARTICLE CANNOT MOVE MORE THAN ONE CELL
 =  5.245    (WHEN MIN. R.F.=1)  AT K=   4, I=   1, J=  73

 MAXIMUM STEPSIZE WHICH MEETS STABILITY CRITERION OF THE ADVECTION TERM
 (FOR PURE FINITE-DIFFERENCE OPTION, MIXELM=0) 
 =  3.807    (WHEN MIN. R.F.=1)  AT K=   2, I=   1, J=  78


 TOTAL NUMBER OF POINT SOURCES/SINKS PRESENT IN THE FLOW MODEL =    62

 MAXIMUM STEPSIZE WHICH MEETS STABILITY CRITERION OF THE SINK & SOURCE TERM
 =  531.9    (WHEN MIN. R.F.=1)  AT K=   2, I=   1, J= 120

 MAXIMUM STEPSIZE WHICH MEETS STABILITY CRITERION OF THE DISPERSION TERM
 =  20.29    (WHEN MIN. R.F.=1)  AT K=   1, I=   1, J=  31


     1 CALLS TO GCG PACKAGE FOR TRANSPORT TIME STEP   1 IN FLOW TIME STEP 247 STRESS PERIOD   1
     6 TOTAL ITERATIONS

 NO OUTPUT CONTROL FOR STRESS PERIOD    1   TIME STEP 247
 
 SOLVING FOR HEAD 
 FLOW MODEL IS TRANSIENT
 FLOW MODEL CONTAINS CONSTANT-HEAD CELLS


 MAXIMUM STEPSIZE DURING WHICH ANY PARTICLE CANNOT MOVE MORE THAN ONE CELL
 =  5.296    (WHEN MIN. R.F.=1)  AT K=   5, I=   1, J=  73

 MAXIMUM STEPSIZE WHICH MEETS STABILITY CRITERION OF THE ADVECTION TERM
 (FOR PURE FINITE-DIFFERENCE OPTION, MIXELM=0) 
 =  3.573    (WHEN MIN. R.F.=1)  AT K=   2, I=   1, J=  78


 TOTAL NUMBER OF POINT SOURCES/SINKS PRESENT IN THE FLOW MODEL =    62

 MAXIMUM STEPSIZE WHICH MEETS STABILITY CRITERION OF THE SINK & SOURCE TERM
 =  499.3    (WHEN MIN. R.F.=1)  AT K=   2, I=   1, J= 120

 MAXIMUM STEPSIZE WHICH MEETS STABILITY CRITERION OF THE DISPERSION TERM
 =  20.29    (WHEN MIN. R.F.=1)  AT K=   1, I=   1, J=  31
     1 CALLS TO GCG PACKAGE FOR TRANSPORT TIME STEP   2 IN FLOW TIME STEP 247 STRESS PERIOD   1
     6 TOTAL ITERATIONS
 
 SOLVING FOR HEAD 
 FLOW MODEL IS TRANSIENT
 FLOW MODEL CONTAINS CONSTANT-HEAD CELLS


 MAXIMUM STEPSIZE DURING WHICH ANY PARTICLE CANNOT MOVE MORE THAN ONE CELL
 =  5.345    (WHEN MIN. R.F.=1)  AT K=   5, I=   1, J=  73

 MAXIMUM STEPSIZE WHICH MEETS STABILITY CRITERION OF THE ADVECTION TERM
 (FOR PURE FINITE-DIFFERENCE OPTION, MIXELM=0) 
 =  3.496    (WHEN MIN. R.F.=1)  AT K=   2, I=   1, J=  78


 TOTAL NUMBER OF POINT SOURCES/SINKS PRESENT IN THE FLOW MODEL =    62

 MAXIMUM STEPSIZE WHICH MEETS STABILITY CRITERION OF THE SINK & SOURCE TERM
 =  501.4    (WHEN MIN. R.F.=1)  AT K=   2, I=   1, J= 120

 MAXIMUM STEPSIZE WHICH MEETS STABILITY CRITERION OF THE DISPERSION TERM
 =  20.29    (WHEN MIN. R.F.=1)  AT K=   1, I=   1, J=  31
     1 CALLS TO GCG PACKAGE FOR TRANSPORT TIME STEP   3 IN FLOW TIME STEP 247 STRESS PERIOD   1
     6 TOTAL ITERATIONS
 
 SOLVING FOR HEAD 
 FLOW MODEL IS TRANSIENT
 FLOW MODEL CONTAINS CONSTANT-HEAD CELLS


 MAXIMUM STEPSIZE DURING WHICH ANY PARTICLE CANNOT MOVE MORE THAN ONE CELL
 =  5.416    (WHEN MIN. R.F.=1)  AT K=   5, I=   1, J=  73

 MAXIMUM STEPSIZE WHICH MEETS STABILITY CRITERION OF THE ADVECTION TERM
 (FOR PURE FINITE-DIFFERENCE OPTION, MIXELM=0) 
 =  3.557    (WHEN MIN. R.F.=1)  AT K=   2, I=   1, J=  78


 TOTAL NUMBER OF POINT SOURCES/SINKS PRESENT IN THE FLOW MODEL =    62

 MAXIMUM STEPSIZE WHICH MEETS STABILITY CRITERION OF THE SINK & SOURCE TERM
 =  505.3    (WHEN MIN. R.F.=1)  AT K=   2, I=   1, J= 120

 MAXIMUM STEPSIZE WHICH MEETS STABILITY CRITERION OF THE DISPERSION TERM
 =  20.29    (WHEN MIN. R.F.=1)  AT K=   1, I=   1, J=  31
     1 CALLS TO GCG PACKAGE FOR TRANSPORT TIME STEP   4 IN FLOW TIME STEP 247 STRESS PERIOD   1
     5 TOTAL ITERATIONS
  MAXIMUM CONCENTRATION CHANGES FOR EACH ITERATION:
  MAX. CHANGE LAYER,ROW,COL MAX. CHANGE LAYER,ROW,COL MAX. CHANGE LAYER,ROW,COL MAX. CHANGE LAYER,ROW,COL MAX. CHANGE LAYER,ROW,COL
 ------------------------------------------------------------------------------------------------------------------------------------
   0.2277E-01 (  2,  1, 79)  0.5348E-03 (  2,  1, 79)  0.1896E-04 (  2,  1, 80)  0.7956E-06 (  3,  1, 75)  0.2209E-07 (  3,  1, 88)


                                          ================================================
                                                         FROM TIME =   2470.0     TO    2480.0    

 
 SOLVING FOR HEAD 
 FLOW MODEL IS TRANSIENT
 FLOW MODEL CONTAINS CONSTANT-HEAD CELLS


 MAXIMUM STEPSIZE DURING WHICH ANY PARTICLE CANNOT MOVE MORE THAN ONE CELL
 =  5.477    (WHEN MIN. R.F.=1)  AT K=   5, I=   1, J=  73

 MAXIMUM STEPSIZE WHICH MEETS STABILITY CRITERION OF THE ADVECTION TERM
 (FOR PURE FINITE-DIFFERENCE OPTION, MIXELM=0) 
 =  3.679    (WHEN MIN. R.F.=1)  AT K=   2, I=   1, J=  78


 TOTAL NUMBER OF POINT SOURCES/SINKS PRESENT IN THE FLOW MODEL =    62

 MAXIMUM STEPSIZE WHICH MEETS STABILITY CRITERION OF THE SINK & SOURCE TERM
 =  541.7    (WHEN MIN. R.F.=1)  AT K=   2, I=   1, J= 120

 MAXIMUM STEPSIZE WHICH MEETS STABILITY CRITERION OF THE DISPERSION TERM
 =  20.29    (WHEN MIN. R.F.=1)  AT K=   1, I=   1, J=  31


     1 CALLS TO GCG PACKAGE FOR TRANSPORT TIME STEP   1 IN FLOW TIME STEP 248 STRESS PERIOD   1
     6 TOTAL ITERATIONS

 NO OUTPUT CONTROL FOR STRESS PERIOD    1   TIME STEP 248
 
 SOLVING FOR HEAD 
 FLOW MODEL IS TRANSIENT
 FLOW MODEL CONTAINS CONSTANT-HEAD CELLS


 MAXIMUM STEPSIZE DURING WHICH ANY PARTICLE CANNOT MOVE MORE THAN ONE CELL
 =  5.585    (WHEN MIN. R.F.=1)  AT K=   5, I=   1, J=  73

 MAXIMUM STEPSIZE WHICH MEETS STABILITY CRITERION OF THE ADVECTION TERM
 (FOR PURE FINITE-DIFFERENCE OPTION, MIXELM=0) 
 =  4.025    (WHEN MIN. R.F.=1)  AT K=   2, I=   1, J=  78


 TOTAL NUMBER OF POINT SOURCES/SINKS PRESENT IN THE FLOW MODEL =    62

 MAXIMUM STEPSIZE WHICH MEETS STABILITY CRITERION OF THE SINK & SOURCE TERM
 =  489.6    (WHEN MIN. R.F.=1)  AT K=   2, I=   1, J= 120

 MAXIMUM STEPSIZE WHICH MEETS STABILITY CRITERION OF THE DISPERSION TERM
 =  20.29    (WHEN MIN. R.F.=1)  AT K=   1, I=   1, J=  31
     1 CALLS TO GCG PACKAGE FOR TRANSPORT TIME STEP   2 IN FLOW TIME STEP 248 STRESS PERIOD   1
     6 TOTAL ITERATIONS
 
 SOLVING FOR HEAD 
 FLOW MODEL IS TRANSIENT
 FLOW MODEL CONTAINS CONSTANT-HEAD CELLS


 MAXIMUM STEPSIZE DURING WHICH ANY PARTICLE CANNOT MOVE MORE THAN ONE CELL
 =  5.689    (WHEN MIN. R.F.=1)  AT K=   6, I=   1, J=  73

 MAXIMUM STEPSIZE WHICH MEETS STABILITY CRITERION OF THE ADVECTION TERM
 (FOR PURE FINITE-DIFFERENCE OPTION, MIXELM=0) 
 =  3.783    (WHEN MIN. R.F.=1)  AT K=   2, I=   1, J=  77


 TOTAL NUMBER OF POINT SOURCES/SINKS PRESENT IN THE FLOW MODEL =    62

 MAXIMUM STEPSIZE WHICH MEETS STABILITY CRITERION OF THE SINK & SOURCE TERM
 =  453.5    (WHEN MIN. R.F.=1)  AT K=   2, I=   1, J= 120

 MAXIMUM STEPSIZE WHICH MEETS STABILITY CRITERION OF THE DISPERSION TERM
 =  20.29    (WHEN MIN. R.F.=1)  AT K=   1, I=   1, J=  31
     1 CALLS TO GCG PACKAGE FOR TRANSPORT TIME STEP   3 IN FLOW TIME STEP 248 STRESS PERIOD   1
     6 TOTAL ITERATIONS
 
 SOLVING FOR HEAD 
 FLOW MODEL IS TRANSIENT
 FLOW MODEL CONTAINS CONSTANT-HEAD CELLS


 MAXIMUM STEPSIZE DURING WHICH ANY PARTICLE CANNOT MOVE MORE THAN ONE CELL
 =  5.698    (WHEN MIN. R.F.=1)  AT K=   4, I=   1, J=  60

 MAXIMUM STEPSIZE WHICH MEETS STABILITY CRITERION OF THE ADVECTION TERM
 (FOR PURE FINITE-DIFFERENCE OPTION, MIXELM=0) 
 =  3.620    (WHEN MIN. R.F.=1)  AT K=   2, I=   1, J=  77


 TOTAL NUMBER OF POINT SOURCES/SINKS PRESENT IN THE FLOW MODEL =    62

 MAXIMUM STEPSIZE WHICH MEETS STABILITY CRITERION OF THE SINK & SOURCE TERM
 =  425.9    (WHEN MIN. R.F.=1)  AT K=   2, I=   1, J= 120

 MAXIMUM STEPSIZE WHICH MEETS STABILITY CRITERION OF THE DISPERSION TERM
 =  20.29    (WHEN MIN. R.F.=1)  AT K=   1, I=   1, J=  31
     1 CALLS TO GCG PACKAGE FOR TRANSPORT TIME STEP   4 IN FLOW TIME STEP 248 STRESS PERIOD   1
     5 TOTAL ITERATIONS
  MAXIMUM CONCENTRATION CHANGES FOR EACH ITERATION:
  MAX. CHANGE LAYER,ROW,COL MAX. CHANGE LAYER,ROW,COL MAX. CHANGE LAYER,ROW,COL MAX. CHANGE LAYER,ROW,COL MAX. CHANGE LAYER,ROW,COL
 ------------------------------------------------------------------------------------------------------------------------------------
   0.1780E-01 (  2,  1, 39)  0.4473E-03 (  2,  1, 78)  0.1278E-04 (  2,  1, 79)  0.4259E-06 (  3,  1, 79)  0.1495E-07 (  3,  1, 80)


                                          ================================================
                                                         FROM TIME =   2480.0     TO    2490.0    

 
 SOLVING FOR HEAD 
 FLOW MODEL IS TRANSIENT
 FLOW MODEL CONTAINS CONSTANT-HEAD CELLS


 MAXIMUM STEPSIZE DURING WHICH ANY PARTICLE CANNOT MOVE MORE THAN ONE CELL
 =  5.702    (WHEN MIN. R.F.=1)  AT K=   4, I=   1, J=  60

 MAXIMUM STEPSIZE WHICH MEETS STABILITY CRITERION OF THE ADVECTION TERM
 (FOR PURE FINITE-DIFFERENCE OPTION, MIXELM=0) 
 =  3.609    (WHEN MIN. R.F.=1)  AT K=   2, I=   1, J=  77


 TOTAL NUMBER OF POINT SOURCES/SINKS PRESENT IN THE FLOW MODEL =    62

 MAXIMUM STEPSIZE WHICH MEETS STABILITY CRITERION OF THE SINK & SOURCE TERM
 =  463.2    (WHEN MIN. R.F.=1)  AT K=   2, I=   1, J= 120

 MAXIMUM STEPSIZE WHICH MEETS STABILITY CRITERION OF THE DISPERSION TERM
 =  20.29    (WHEN MIN. R.F.=1)  AT K=   1, I=   1, J=  31


     1 CALLS TO GCG PACKAGE FOR TRANSPORT TIME STEP   1 IN FLOW TIME STEP 249 STRESS PERIOD   1
     6 TOTAL ITERATIONS

 NO OUTPUT CONTROL FOR STRESS PERIOD    1   TIME STEP 249
 
 SOLVING FOR HEAD 
 FLOW MODEL IS TRANSIENT
 FLOW MODEL CONTAINS CONSTANT-HEAD CELLS


 MAXIMUM STEPSIZE DURING WHICH ANY PARTICLE CANNOT MOVE MORE THAN ONE CELL
 =  5.705    (WHEN MIN. R.F.=1)  AT K=   4, I=   1, J=  60

 MAXIMUM STEPSIZE WHICH MEETS STABILITY CRITERION OF THE ADVECTION TERM
 (FOR PURE FINITE-DIFFERENCE OPTION, MIXELM=0) 
 =  3.658    (WHEN MIN. R.F.=1)  AT K=   2, I=   1, J=  77


 TOTAL NUMBER OF POINT SOURCES/SINKS PRESENT IN THE FLOW MODEL =    62

 MAXIMUM STEPSIZE WHICH MEETS STABILITY CRITERION OF THE SINK & SOURCE TERM
 =  432.5    (WHEN MIN. R.F.=1)  AT K=   2, I=   1, J= 120

 MAXIMUM STEPSIZE WHICH MEETS STABILITY CRITERION OF THE DISPERSION TERM
 =  20.29    (WHEN MIN. R.F.=1)  AT K=   1, I=   1, J=  31
     1 CALLS TO GCG PACKAGE FOR TRANSPORT TIME STEP   2 IN FLOW TIME STEP 249 STRESS PERIOD   1
     6 TOTAL ITERATIONS
 
 SOLVING FOR HEAD 
 FLOW MODEL IS TRANSIENT
 FLOW MODEL CONTAINS CONSTANT-HEAD CELLS


 MAXIMUM STEPSIZE DURING WHICH ANY PARTICLE CANNOT MOVE MORE THAN ONE CELL
 =  5.708    (WHEN MIN. R.F.=1)  AT K=   4, I=   1, J=  60

 MAXIMUM STEPSIZE WHICH MEETS STABILITY CRITERION OF THE ADVECTION TERM
 (FOR PURE FINITE-DIFFERENCE OPTION, MIXELM=0) 
 =  3.838    (WHEN MIN. R.F.=1)  AT K=   2, I=   1, J=  41


 TOTAL NUMBER OF POINT SOURCES/SINKS PRESENT IN THE FLOW MODEL =    62

 MAXIMUM STEPSIZE WHICH MEETS STABILITY CRITERION OF THE SINK & SOURCE TERM
 =  416.0    (WHEN MIN. R.F.=1)  AT K=   2, I=   1, J= 120

 MAXIMUM STEPSIZE WHICH MEETS STABILITY CRITERION OF THE DISPERSION TERM
 =  20.29    (WHEN MIN. R.F.=1)  AT K=   1, I=   1, J=  31
     1 CALLS TO GCG PACKAGE FOR TRANSPORT TIME STEP   3 IN FLOW TIME STEP 249 STRESS PERIOD   1
     6 TOTAL ITERATIONS
 
 SOLVING FOR HEAD 
 FLOW MODEL IS TRANSIENT
 FLOW MODEL CONTAINS CONSTANT-HEAD CELLS


 MAXIMUM STEPSIZE DURING WHICH ANY PARTICLE CANNOT MOVE MORE THAN ONE CELL
 =  5.694    (WHEN MIN. R.F.=1)  AT K=   4, I=   1, J=  48

 MAXIMUM STEPSIZE WHICH MEETS STABILITY CRITERION OF THE ADVECTION TERM
 (FOR PURE FINITE-DIFFERENCE OPTION, MIXELM=0) 
 =  3.679    (WHEN MIN. R.F.=1)  AT K=   2, I=   1, J=  41


 TOTAL NUMBER OF POINT SOURCES/SINKS PRESENT IN THE FLOW MODEL =    62

 MAXIMUM STEPSIZE WHICH MEETS STABILITY CRITERION OF THE SINK & SOURCE TERM
 =  385.9    (WHEN MIN. R.F.=1)  AT K=   2, I=   1, J= 120

 MAXIMUM STEPSIZE WHICH MEETS STABILITY CRITERION OF THE DISPERSION TERM
 =  20.29    (WHEN MIN. R.F.=1)  AT K=   1, I=   1, J=  31
     1 CALLS TO GCG PACKAGE FOR TRANSPORT TIME STEP   4 IN FLOW TIME STEP 249 STRESS PERIOD   1
     5 TOTAL ITERATIONS
  MAXIMUM CONCENTRATION CHANGES FOR EACH ITERATION:
  MAX. CHANGE LAYER,ROW,COL MAX. CHANGE LAYER,ROW,COL MAX. CHANGE LAYER,ROW,COL MAX. CHANGE LAYER,ROW,COL MAX. CHANGE LAYER,ROW,COL
 ------------------------------------------------------------------------------------------------------------------------------------
   0.2206E-01 (  2,  1, 78)  0.7556E-03 (  2,  1, 76)  0.2665E-04 (  3,  1, 76)  0.8755E-06 (  4,  1, 42)  0.2898E-07 (  3,  1, 45)


                                          ================================================
                                                         FROM TIME =   2490.0     TO    2500.0    

 
 SOLVING FOR HEAD 
 FLOW MODEL IS TRANSIENT
 FLOW MODEL CONTAINS CONSTANT-HEAD CELLS


 MAXIMUM STEPSIZE DURING WHICH ANY PARTICLE CANNOT MOVE MORE THAN ONE CELL
 =  5.525    (WHEN MIN. R.F.=1)  AT K=   4, I=   1, J=  48

 MAXIMUM STEPSIZE WHICH MEETS STABILITY CRITERION OF THE ADVECTION TERM
 (FOR PURE FINITE-DIFFERENCE OPTION, MIXELM=0) 
 =  3.658    (WHEN MIN. R.F.=1)  AT K=   2, I=   1, J=  41


 TOTAL NUMBER OF POINT SOURCES/SINKS PRESENT IN THE FLOW MODEL =    62

 MAXIMUM STEPSIZE WHICH MEETS STABILITY CRITERION OF THE SINK & SOURCE TERM
 =  397.9    (WHEN MIN. R.F.=1)  AT K=   2, I=   1, J= 120

 MAXIMUM STEPSIZE WHICH MEETS STABILITY CRITERION OF THE DISPERSION TERM
 =  20.29    (WHEN MIN. R.F.=1)  AT K=   1, I=   1, J=  31


     1 CALLS TO GCG PACKAGE FOR TRANSPORT TIME STEP   1 IN FLOW TIME STEP 250 STRESS PERIOD   1
     6 TOTAL ITERATIONS

 NO OUTPUT CONTROL FOR STRESS PERIOD    1   TIME STEP 250
 
 SOLVING FOR HEAD 
 FLOW MODEL IS TRANSIENT
 FLOW MODEL CONTAINS CONSTANT-HEAD CELLS


 MAXIMUM STEPSIZE DURING WHICH ANY PARTICLE CANNOT MOVE MORE THAN ONE CELL
 =  5.344    (WHEN MIN. R.F.=1)  AT K=   4, I=   1, J=  48

 MAXIMUM STEPSIZE WHICH MEETS STABILITY CRITERION OF THE ADVECTION TERM
 (FOR PURE FINITE-DIFFERENCE OPTION, MIXELM=0) 
 =  3.742    (WHEN MIN. R.F.=1)  AT K=   2, I=   1, J=  41


 TOTAL NUMBER OF POINT SOURCES/SINKS PRESENT IN THE FLOW MODEL =    62

 MAXIMUM STEPSIZE WHICH MEETS STABILITY CRITERION OF THE SINK & SOURCE TERM
 =  370.2    (WHEN MIN. R.F.=1)  AT K=   2, I=   1, J= 120

 MAXIMUM STEPSIZE WHICH MEETS STABILITY CRITERION OF THE DISPERSION TERM
 =  20.29    (WHEN MIN. R.F.=1)  AT K=   1, I=   1, J=  31
     1 CALLS TO GCG PACKAGE FOR TRANSPORT TIME STEP   2 IN FLOW TIME STEP 250 STRESS PERIOD   1
     6 TOTAL ITERATIONS
 
 SOLVING FOR HEAD 
 FLOW MODEL IS TRANSIENT
 FLOW MODEL CONTAINS CONSTANT-HEAD CELLS


 MAXIMUM STEPSIZE DURING WHICH ANY PARTICLE CANNOT MOVE MORE THAN ONE CELL
 =  5.239    (WHEN MIN. R.F.=1)  AT K=   4, I=   1, J=  48

 MAXIMUM STEPSIZE WHICH MEETS STABILITY CRITERION OF THE ADVECTION TERM
 (FOR PURE FINITE-DIFFERENCE OPTION, MIXELM=0) 
 =  3.871    (WHEN MIN. R.F.=1)  AT K=   2, I=   1, J=  76


 TOTAL NUMBER OF POINT SOURCES/SINKS PRESENT IN THE FLOW MODEL =    62

 MAXIMUM STEPSIZE WHICH MEETS STABILITY CRITERION OF THE SINK & SOURCE TERM
 =  370.3    (WHEN MIN. R.F.=1)  AT K=   2, I=   1, J= 120

 MAXIMUM STEPSIZE WHICH MEETS STABILITY CRITERION OF THE DISPERSION TERM
 =  20.29    (WHEN MIN. R.F.=1)  AT K=   1, I=   1, J=  31
     1 CALLS TO GCG PACKAGE FOR TRANSPORT TIME STEP   3 IN FLOW TIME STEP 250 STRESS PERIOD   1
     6 TOTAL ITERATIONS
 
 SOLVING FOR HEAD 
 FLOW MODEL IS TRANSIENT
 FLOW MODEL CONTAINS CONSTANT-HEAD CELLS


 MAXIMUM STEPSIZE DURING WHICH ANY PARTICLE CANNOT MOVE MORE THAN ONE CELL
 =  5.202    (WHEN MIN. R.F.=1)  AT K=   4, I=   1, J=  48

 MAXIMUM STEPSIZE WHICH MEETS STABILITY CRITERION OF THE ADVECTION TERM
 (FOR PURE FINITE-DIFFERENCE OPTION, MIXELM=0) 
 =  3.663    (WHEN MIN. R.F.=1)  AT K=   2, I=   1, J=  42


 TOTAL NUMBER OF POINT SOURCES/SINKS PRESENT IN THE FLOW MODEL =    62

 MAXIMUM STEPSIZE WHICH MEETS STABILITY CRITERION OF THE SINK & SOURCE TERM
 =  364.1    (WHEN MIN. R.F.=1)  AT K=   2, I=   1, J= 120

 MAXIMUM STEPSIZE WHICH MEETS STABILITY CRITERION OF THE DISPERSION TERM
 =  20.29    (WHEN MIN. R.F.=1)  AT K=   1, I=   1, J=  31
     1 CALLS TO GCG PACKAGE FOR TRANSPORT TIME STEP   4 IN FLOW TIME STEP 250 STRESS PERIOD   1
     5 TOTAL ITERATIONS
  MAXIMUM CONCENTRATION CHANGES FOR EACH ITERATION:
  MAX. CHANGE LAYER,ROW,COL MAX. CHANGE LAYER,ROW,COL MAX. CHANGE LAYER,ROW,COL MAX. CHANGE LAYER,ROW,COL MAX. CHANGE LAYER,ROW,COL
 ------------------------------------------------------------------------------------------------------------------------------------
   0.2157E-01 (  2,  1, 77)  0.5163E-03 (  2,  1, 77)  0.1946E-04 (  2,  1, 78)  0.7530E-06 (  3,  1, 78)  0.2434E-07 (  4,  1, 45)


                                          ================================================
                                                         FROM TIME =   2500.0     TO    2510.0    

 
 SOLVING FOR HEAD 
 FLOW MODEL IS TRANSIENT
 FLOW MODEL CONTAINS CONSTANT-HEAD CELLS


 MAXIMUM STEPSIZE DURING WHICH ANY PARTICLE CANNOT MOVE MORE THAN ONE CELL
 =  5.212    (WHEN MIN. R.F.=1)  AT K=   4, I=   1, J=  48

 MAXIMUM STEPSIZE WHICH MEETS STABILITY CRITERION OF THE ADVECTION TERM
 (FOR PURE FINITE-DIFFERENCE OPTION, MIXELM=0) 
 =  3.604    (WHEN MIN. R.F.=1)  AT K=   2, I=   1, J=  42


 TOTAL NUMBER OF POINT SOURCES/SINKS PRESENT IN THE FLOW MODEL =    62

 MAXIMUM STEPSIZE WHICH MEETS STABILITY CRITERION OF THE SINK & SOURCE TERM
 =  365.6    (WHEN MIN. R.F.=1)  AT K=   2, I=   1, J= 120

 MAXIMUM STEPSIZE WHICH MEETS STABILITY CRITERION OF THE DISPERSION TERM
 =  20.29    (WHEN MIN. R.F.=1)  AT K=   1, I=   1, J=  31


     1 CALLS TO GCG PACKAGE FOR TRANSPORT TIME STEP   1 IN FLOW TIME STEP 251 STRESS PERIOD   1
     6 TOTAL ITERATIONS

 NO OUTPUT CONTROL FOR STRESS PERIOD    1   TIME STEP 251



 >>>>>>>>>>>>>>>>>>>>>>>>>>>>>>>>>>>>>>>>>>>>>>>>>>>>>>>FOR COMPONENT NO. 01<<<<<<<<<<<<<<<<<<<<<<<<<<<<<<<<<<<<<<<<<<<<<<<<<<<<<<<


                                            -------------------------------------------
                                                      TRANSPORT STEP NO.    1
                                            -------------------------------------------

 TOTAL ELAPSED TIME SINCE BEGINNING OF SIMULATION =   2502.400    D   
 .....................................................................

                     CUMULATIVE MASS BUDGETS AT END OF TRANSPORT STEP    1, TIME STEP  251, STRESS PERIOD    1
                     ------------------------------------------------------------------------------------------

                                                             IN                           OUT
                                                      ----------------             ----------------
                               CONSTANT CONCENTRATION:    1718511.                   -816182.6    
                                        CONSTANT HEAD:    0.000000                  -0.2054581E-01
                               MASS STOR (FLOW MODEL):    185.4100                   -358.1032    
                                MASS STORAGE (SOLUTE):    2580293.                   -3482449.    
                            ---------------------------------------------------------------------------
                                              [TOTAL]:    4298990.     KG            -4298990.     KG  

                                                          NET (IN - OUT):   0.2306381E-02
                                                   DISCREPANCY (PERCENT):   0.5364938E-07
 
 SOLVING FOR HEAD 
 FLOW MODEL IS TRANSIENT
 FLOW MODEL CONTAINS CONSTANT-HEAD CELLS


 MAXIMUM STEPSIZE DURING WHICH ANY PARTICLE CANNOT MOVE MORE THAN ONE CELL
 =  5.263    (WHEN MIN. R.F.=1)  AT K=   4, I=   1, J=  48

 MAXIMUM STEPSIZE WHICH MEETS STABILITY CRITERION OF THE ADVECTION TERM
 (FOR PURE FINITE-DIFFERENCE OPTION, MIXELM=0) 
 =  3.606    (WHEN MIN. R.F.=1)  AT K=   2, I=   1, J=  42


 TOTAL NUMBER OF POINT SOURCES/SINKS PRESENT IN THE FLOW MODEL =    62

 MAXIMUM STEPSIZE WHICH MEETS STABILITY CRITERION OF THE SINK & SOURCE TERM
 =  346.0    (WHEN MIN. R.F.=1)  AT K=   2, I=   1, J= 120

 MAXIMUM STEPSIZE WHICH MEETS STABILITY CRITERION OF THE DISPERSION TERM
 =  20.29    (WHEN MIN. R.F.=1)  AT K=   1, I=   1, J=  31
     1 CALLS TO GCG PACKAGE FOR TRANSPORT TIME STEP   2 IN FLOW TIME STEP 251 STRESS PERIOD   1
     6 TOTAL ITERATIONS
 
 SOLVING FOR HEAD 
 FLOW MODEL IS TRANSIENT
 FLOW MODEL CONTAINS CONSTANT-HEAD CELLS


 MAXIMUM STEPSIZE DURING WHICH ANY PARTICLE CANNOT MOVE MORE THAN ONE CELL
 =  5.335    (WHEN MIN. R.F.=1)  AT K=   5, I=   1, J=  48

 MAXIMUM STEPSIZE WHICH MEETS STABILITY CRITERION OF THE ADVECTION TERM
 (FOR PURE FINITE-DIFFERENCE OPTION, MIXELM=0) 
 =  3.714    (WHEN MIN. R.F.=1)  AT K=   2, I=   1, J=  42


 TOTAL NUMBER OF POINT SOURCES/SINKS PRESENT IN THE FLOW MODEL =    62

 MAXIMUM STEPSIZE WHICH MEETS STABILITY CRITERION OF THE SINK & SOURCE TERM
 =  339.5    (WHEN MIN. R.F.=1)  AT K=   2, I=   1, J= 120

 MAXIMUM STEPSIZE WHICH MEETS STABILITY CRITERION OF THE DISPERSION TERM
 =  20.29    (WHEN MIN. R.F.=1)  AT K=   1, I=   1, J=  31
     1 CALLS TO GCG PACKAGE FOR TRANSPORT TIME STEP   3 IN FLOW TIME STEP 251 STRESS PERIOD   1
     6 TOTAL ITERATIONS
 
 SOLVING FOR HEAD 
 FLOW MODEL IS TRANSIENT
 FLOW MODEL CONTAINS CONSTANT-HEAD CELLS


 MAXIMUM STEPSIZE DURING WHICH ANY PARTICLE CANNOT MOVE MORE THAN ONE CELL
 =  5.401    (WHEN MIN. R.F.=1)  AT K=   5, I=   1, J=  48

 MAXIMUM STEPSIZE WHICH MEETS STABILITY CRITERION OF THE ADVECTION TERM
 (FOR PURE FINITE-DIFFERENCE OPTION, MIXELM=0) 
 =  4.016    (WHEN MIN. R.F.=1)  AT K=   2, I=   1, J=  42


 TOTAL NUMBER OF POINT SOURCES/SINKS PRESENT IN THE FLOW MODEL =    62

 MAXIMUM STEPSIZE WHICH MEETS STABILITY CRITERION OF THE SINK & SOURCE TERM
 =  336.1    (WHEN MIN. R.F.=1)  AT K=   2, I=   1, J= 120

 MAXIMUM STEPSIZE WHICH MEETS STABILITY CRITERION OF THE DISPERSION TERM
 =  20.29    (WHEN MIN. R.F.=1)  AT K=   1, I=   1, J=  31
     1 CALLS TO GCG PACKAGE FOR TRANSPORT TIME STEP   4 IN FLOW TIME STEP 251 STRESS PERIOD   1
     5 TOTAL ITERATIONS
  MAXIMUM CONCENTRATION CHANGES FOR EACH ITERATION:
  MAX. CHANGE LAYER,ROW,COL MAX. CHANGE LAYER,ROW,COL MAX. CHANGE LAYER,ROW,COL MAX. CHANGE LAYER,ROW,COL MAX. CHANGE LAYER,ROW,COL
 ------------------------------------------------------------------------------------------------------------------------------------
   0.2579E-01 (  2,  1, 83)  0.9489E-03 (  2,  1, 83)  0.3864E-04 (  2,  1, 84)  0.2049E-05 (  3,  1, 46)  0.9452E-07 (  4,  1, 81)


                                          ================================================
                                                         FROM TIME =   2510.0     TO    2520.0    

 
 SOLVING FOR HEAD 
 FLOW MODEL IS TRANSIENT
 FLOW MODEL CONTAINS CONSTANT-HEAD CELLS


 MAXIMUM STEPSIZE DURING WHICH ANY PARTICLE CANNOT MOVE MORE THAN ONE CELL
 =  5.477    (WHEN MIN. R.F.=1)  AT K=   5, I=   1, J=  48

 MAXIMUM STEPSIZE WHICH MEETS STABILITY CRITERION OF THE ADVECTION TERM
 (FOR PURE FINITE-DIFFERENCE OPTION, MIXELM=0) 
 =  3.799    (WHEN MIN. R.F.=1)  AT K=   2, I=   1, J=  43


 TOTAL NUMBER OF POINT SOURCES/SINKS PRESENT IN THE FLOW MODEL =    62

 MAXIMUM STEPSIZE WHICH MEETS STABILITY CRITERION OF THE SINK & SOURCE TERM
 =  344.6    (WHEN MIN. R.F.=1)  AT K=   2, I=   1, J= 120

 MAXIMUM STEPSIZE WHICH MEETS STABILITY CRITERION OF THE DISPERSION TERM
 =  20.29    (WHEN MIN. R.F.=1)  AT K=   1, I=   1, J=  31


     1 CALLS TO GCG PACKAGE FOR TRANSPORT TIME STEP   1 IN FLOW TIME STEP 252 STRESS PERIOD   1
     6 TOTAL ITERATIONS

 NO OUTPUT CONTROL FOR STRESS PERIOD    1   TIME STEP 252
 
 SOLVING FOR HEAD 
 FLOW MODEL IS TRANSIENT
 FLOW MODEL CONTAINS CONSTANT-HEAD CELLS


 MAXIMUM STEPSIZE DURING WHICH ANY PARTICLE CANNOT MOVE MORE THAN ONE CELL
 =  5.617    (WHEN MIN. R.F.=1)  AT K=   5, I=   1, J=  48

 MAXIMUM STEPSIZE WHICH MEETS STABILITY CRITERION OF THE ADVECTION TERM
 (FOR PURE FINITE-DIFFERENCE OPTION, MIXELM=0) 
 =  3.647    (WHEN MIN. R.F.=1)  AT K=   2, I=   1, J=  43


 TOTAL NUMBER OF POINT SOURCES/SINKS PRESENT IN THE FLOW MODEL =    62

 MAXIMUM STEPSIZE WHICH MEETS STABILITY CRITERION OF THE SINK & SOURCE TERM
 =  334.0    (WHEN MIN. R.F.=1)  AT K=   2, I=   1, J= 120

 MAXIMUM STEPSIZE WHICH MEETS STABILITY CRITERION OF THE DISPERSION TERM
 =  20.29    (WHEN MIN. R.F.=1)  AT K=   1, I=   1, J=  31
     1 CALLS TO GCG PACKAGE FOR TRANSPORT TIME STEP   2 IN FLOW TIME STEP 252 STRESS PERIOD   1
     6 TOTAL ITERATIONS
 
 SOLVING FOR HEAD 
 FLOW MODEL IS TRANSIENT
 FLOW MODEL CONTAINS CONSTANT-HEAD CELLS


 MAXIMUM STEPSIZE DURING WHICH ANY PARTICLE CANNOT MOVE MORE THAN ONE CELL
 =  5.719    (WHEN MIN. R.F.=1)  AT K=   6, I=   1, J=  48

 MAXIMUM STEPSIZE WHICH MEETS STABILITY CRITERION OF THE ADVECTION TERM
 (FOR PURE FINITE-DIFFERENCE OPTION, MIXELM=0) 
 =  3.658    (WHEN MIN. R.F.=1)  AT K=   2, I=   1, J=  43


 TOTAL NUMBER OF POINT SOURCES/SINKS PRESENT IN THE FLOW MODEL =    62

 MAXIMUM STEPSIZE WHICH MEETS STABILITY CRITERION OF THE SINK & SOURCE TERM
 =  321.8    (WHEN MIN. R.F.=1)  AT K=   2, I=   1, J= 120

 MAXIMUM STEPSIZE WHICH MEETS STABILITY CRITERION OF THE DISPERSION TERM
 =  20.29    (WHEN MIN. R.F.=1)  AT K=   1, I=   1, J=  31
     1 CALLS TO GCG PACKAGE FOR TRANSPORT TIME STEP   3 IN FLOW TIME STEP 252 STRESS PERIOD   1
     6 TOTAL ITERATIONS
 
 SOLVING FOR HEAD 
 FLOW MODEL IS TRANSIENT
 FLOW MODEL CONTAINS CONSTANT-HEAD CELLS


 MAXIMUM STEPSIZE DURING WHICH ANY PARTICLE CANNOT MOVE MORE THAN ONE CELL
 =  5.737    (WHEN MIN. R.F.=1)  AT K=   4, I=   1, J=  60

 MAXIMUM STEPSIZE WHICH MEETS STABILITY CRITERION OF THE ADVECTION TERM
 (FOR PURE FINITE-DIFFERENCE OPTION, MIXELM=0) 
 =  3.790    (WHEN MIN. R.F.=1)  AT K=   2, I=   1, J=  43


 TOTAL NUMBER OF POINT SOURCES/SINKS PRESENT IN THE FLOW MODEL =    62

 MAXIMUM STEPSIZE WHICH MEETS STABILITY CRITERION OF THE SINK & SOURCE TERM
 =  314.9    (WHEN MIN. R.F.=1)  AT K=   2, I=   1, J= 120

 MAXIMUM STEPSIZE WHICH MEETS STABILITY CRITERION OF THE DISPERSION TERM
 =  20.29    (WHEN MIN. R.F.=1)  AT K=   1, I=   1, J=  31
     1 CALLS TO GCG PACKAGE FOR TRANSPORT TIME STEP   4 IN FLOW TIME STEP 252 STRESS PERIOD   1
     5 TOTAL ITERATIONS
  MAXIMUM CONCENTRATION CHANGES FOR EACH ITERATION:
  MAX. CHANGE LAYER,ROW,COL MAX. CHANGE LAYER,ROW,COL MAX. CHANGE LAYER,ROW,COL MAX. CHANGE LAYER,ROW,COL MAX. CHANGE LAYER,ROW,COL
 ------------------------------------------------------------------------------------------------------------------------------------
   0.1719E-01 (  2,  1, 76)  0.3239E-03 (  2,  1, 82)  0.9912E-05 (  2,  1, 77)  0.4154E-06 (  3,  1, 46)  0.8960E-08 (  3,  1, 33)


                                          ================================================
                                                         FROM TIME =   2520.0     TO    2530.0    

 
 SOLVING FOR HEAD 
 FLOW MODEL IS TRANSIENT
 FLOW MODEL CONTAINS CONSTANT-HEAD CELLS


 MAXIMUM STEPSIZE DURING WHICH ANY PARTICLE CANNOT MOVE MORE THAN ONE CELL
 =  5.741    (WHEN MIN. R.F.=1)  AT K=   4, I=   1, J=  60

 MAXIMUM STEPSIZE WHICH MEETS STABILITY CRITERION OF THE ADVECTION TERM
 (FOR PURE FINITE-DIFFERENCE OPTION, MIXELM=0) 
 =  3.840    (WHEN MIN. R.F.=1)  AT K=   2, I=   1, J=  81


 TOTAL NUMBER OF POINT SOURCES/SINKS PRESENT IN THE FLOW MODEL =    62

 MAXIMUM STEPSIZE WHICH MEETS STABILITY CRITERION OF THE SINK & SOURCE TERM
 =  338.9    (WHEN MIN. R.F.=1)  AT K=   2, I=   1, J= 120

 MAXIMUM STEPSIZE WHICH MEETS STABILITY CRITERION OF THE DISPERSION TERM
 =  20.29    (WHEN MIN. R.F.=1)  AT K=   1, I=   1, J=  31


     1 CALLS TO GCG PACKAGE FOR TRANSPORT TIME STEP   1 IN FLOW TIME STEP 253 STRESS PERIOD   1
     6 TOTAL ITERATIONS

 NO OUTPUT CONTROL FOR STRESS PERIOD    1   TIME STEP 253
 
 SOLVING FOR HEAD 
 FLOW MODEL IS TRANSIENT
 FLOW MODEL CONTAINS CONSTANT-HEAD CELLS


 MAXIMUM STEPSIZE DURING WHICH ANY PARTICLE CANNOT MOVE MORE THAN ONE CELL
 =  5.743    (WHEN MIN. R.F.=1)  AT K=   4, I=   1, J=  60

 MAXIMUM STEPSIZE WHICH MEETS STABILITY CRITERION OF THE ADVECTION TERM
 (FOR PURE FINITE-DIFFERENCE OPTION, MIXELM=0) 
 =  3.802    (WHEN MIN. R.F.=1)  AT K=   2, I=   1, J=  81


 TOTAL NUMBER OF POINT SOURCES/SINKS PRESENT IN THE FLOW MODEL =    62

 MAXIMUM STEPSIZE WHICH MEETS STABILITY CRITERION OF THE SINK & SOURCE TERM
 =  310.6    (WHEN MIN. R.F.=1)  AT K=   2, I=   1, J= 120

 MAXIMUM STEPSIZE WHICH MEETS STABILITY CRITERION OF THE DISPERSION TERM
 =  20.29    (WHEN MIN. R.F.=1)  AT K=   1, I=   1, J=  31
     1 CALLS TO GCG PACKAGE FOR TRANSPORT TIME STEP   2 IN FLOW TIME STEP 253 STRESS PERIOD   1
     6 TOTAL ITERATIONS
 
 SOLVING FOR HEAD 
 FLOW MODEL IS TRANSIENT
 FLOW MODEL CONTAINS CONSTANT-HEAD CELLS


 MAXIMUM STEPSIZE DURING WHICH ANY PARTICLE CANNOT MOVE MORE THAN ONE CELL
 =  5.745    (WHEN MIN. R.F.=1)  AT K=   4, I=   1, J=  60

 MAXIMUM STEPSIZE WHICH MEETS STABILITY CRITERION OF THE ADVECTION TERM
 (FOR PURE FINITE-DIFFERENCE OPTION, MIXELM=0) 
 =  3.764    (WHEN MIN. R.F.=1)  AT K=   2, I=   1, J=  44


 TOTAL NUMBER OF POINT SOURCES/SINKS PRESENT IN THE FLOW MODEL =    62

 MAXIMUM STEPSIZE WHICH MEETS STABILITY CRITERION OF THE SINK & SOURCE TERM
 =  296.6    (WHEN MIN. R.F.=1)  AT K=   2, I=   1, J= 120

 MAXIMUM STEPSIZE WHICH MEETS STABILITY CRITERION OF THE DISPERSION TERM
 =  20.29    (WHEN MIN. R.F.=1)  AT K=   1, I=   1, J=  31
     1 CALLS TO GCG PACKAGE FOR TRANSPORT TIME STEP   3 IN FLOW TIME STEP 253 STRESS PERIOD   1
     6 TOTAL ITERATIONS
 
 SOLVING FOR HEAD 
 FLOW MODEL IS TRANSIENT
 FLOW MODEL CONTAINS CONSTANT-HEAD CELLS


 MAXIMUM STEPSIZE DURING WHICH ANY PARTICLE CANNOT MOVE MORE THAN ONE CELL
 =  5.746    (WHEN MIN. R.F.=1)  AT K=   4, I=   1, J=  60

 MAXIMUM STEPSIZE WHICH MEETS STABILITY CRITERION OF THE ADVECTION TERM
 (FOR PURE FINITE-DIFFERENCE OPTION, MIXELM=0) 
 =  3.701    (WHEN MIN. R.F.=1)  AT K=   2, I=   1, J=  80


 TOTAL NUMBER OF POINT SOURCES/SINKS PRESENT IN THE FLOW MODEL =    62

 MAXIMUM STEPSIZE WHICH MEETS STABILITY CRITERION OF THE SINK & SOURCE TERM
 =  288.6    (WHEN MIN. R.F.=1)  AT K=   2, I=   1, J= 120

 MAXIMUM STEPSIZE WHICH MEETS STABILITY CRITERION OF THE DISPERSION TERM
 =  20.29    (WHEN MIN. R.F.=1)  AT K=   1, I=   1, J=  31
     1 CALLS TO GCG PACKAGE FOR TRANSPORT TIME STEP   4 IN FLOW TIME STEP 253 STRESS PERIOD   1
     5 TOTAL ITERATIONS
  MAXIMUM CONCENTRATION CHANGES FOR EACH ITERATION:
  MAX. CHANGE LAYER,ROW,COL MAX. CHANGE LAYER,ROW,COL MAX. CHANGE LAYER,ROW,COL MAX. CHANGE LAYER,ROW,COL MAX. CHANGE LAYER,ROW,COL
 ------------------------------------------------------------------------------------------------------------------------------------
   0.1659E-01 (  2,  1, 82)  0.3212E-03 (  2,  1, 50)  0.9561E-05 (  3,  1, 45)  0.2979E-06 (  3,  1, 73)  0.9588E-08 (  3,  1, 48)


                                          ================================================
                                                         FROM TIME =   2530.0     TO    2540.0    

 
 SOLVING FOR HEAD 
 FLOW MODEL IS TRANSIENT
 FLOW MODEL CONTAINS CONSTANT-HEAD CELLS


 MAXIMUM STEPSIZE DURING WHICH ANY PARTICLE CANNOT MOVE MORE THAN ONE CELL
 =  5.749    (WHEN MIN. R.F.=1)  AT K=   4, I=   1, J=  60

 MAXIMUM STEPSIZE WHICH MEETS STABILITY CRITERION OF THE ADVECTION TERM
 (FOR PURE FINITE-DIFFERENCE OPTION, MIXELM=0) 
 =  3.602    (WHEN MIN. R.F.=1)  AT K=   2, I=   1, J=  80


 TOTAL NUMBER OF POINT SOURCES/SINKS PRESENT IN THE FLOW MODEL =    62

 MAXIMUM STEPSIZE WHICH MEETS STABILITY CRITERION OF THE SINK & SOURCE TERM
 =  315.9    (WHEN MIN. R.F.=1)  AT K=   2, I=   1, J= 120

 MAXIMUM STEPSIZE WHICH MEETS STABILITY CRITERION OF THE DISPERSION TERM
 =  20.29    (WHEN MIN. R.F.=1)  AT K=   1, I=   1, J=  31


     1 CALLS TO GCG PACKAGE FOR TRANSPORT TIME STEP   1 IN FLOW TIME STEP 254 STRESS PERIOD   1
     6 TOTAL ITERATIONS

 NO OUTPUT CONTROL FOR STRESS PERIOD    1   TIME STEP 254
 
 SOLVING FOR HEAD 
 FLOW MODEL IS TRANSIENT
 FLOW MODEL CONTAINS CONSTANT-HEAD CELLS


 MAXIMUM STEPSIZE DURING WHICH ANY PARTICLE CANNOT MOVE MORE THAN ONE CELL
 =  5.647    (WHEN MIN. R.F.=1)  AT K=   4, I=   1, J=  73

 MAXIMUM STEPSIZE WHICH MEETS STABILITY CRITERION OF THE ADVECTION TERM
 (FOR PURE FINITE-DIFFERENCE OPTION, MIXELM=0) 
 =  3.515    (WHEN MIN. R.F.=1)  AT K=   2, I=   1, J=  80


 TOTAL NUMBER OF POINT SOURCES/SINKS PRESENT IN THE FLOW MODEL =    62

 MAXIMUM STEPSIZE WHICH MEETS STABILITY CRITERION OF THE SINK & SOURCE TERM
 =  307.0    (WHEN MIN. R.F.=1)  AT K=   2, I=   1, J= 120

 MAXIMUM STEPSIZE WHICH MEETS STABILITY CRITERION OF THE DISPERSION TERM
 =  20.29    (WHEN MIN. R.F.=1)  AT K=   1, I=   1, J=  31
     1 CALLS TO GCG PACKAGE FOR TRANSPORT TIME STEP   2 IN FLOW TIME STEP 254 STRESS PERIOD   1
     6 TOTAL ITERATIONS
 
 SOLVING FOR HEAD 
 FLOW MODEL IS TRANSIENT
 FLOW MODEL CONTAINS CONSTANT-HEAD CELLS


 MAXIMUM STEPSIZE DURING WHICH ANY PARTICLE CANNOT MOVE MORE THAN ONE CELL
 =  5.533    (WHEN MIN. R.F.=1)  AT K=   4, I=   1, J=  73

 MAXIMUM STEPSIZE WHICH MEETS STABILITY CRITERION OF THE ADVECTION TERM
 (FOR PURE FINITE-DIFFERENCE OPTION, MIXELM=0) 
 =  3.578    (WHEN MIN. R.F.=1)  AT K=   2, I=   1, J=  80


 TOTAL NUMBER OF POINT SOURCES/SINKS PRESENT IN THE FLOW MODEL =    62

 MAXIMUM STEPSIZE WHICH MEETS STABILITY CRITERION OF THE SINK & SOURCE TERM
 =  312.2    (WHEN MIN. R.F.=1)  AT K=   2, I=   1, J= 120

 MAXIMUM STEPSIZE WHICH MEETS STABILITY CRITERION OF THE DISPERSION TERM
 =  20.29    (WHEN MIN. R.F.=1)  AT K=   1, I=   1, J=  31
     1 CALLS TO GCG PACKAGE FOR TRANSPORT TIME STEP   3 IN FLOW TIME STEP 254 STRESS PERIOD   1
     6 TOTAL ITERATIONS
 
 SOLVING FOR HEAD 
 FLOW MODEL IS TRANSIENT
 FLOW MODEL CONTAINS CONSTANT-HEAD CELLS


 MAXIMUM STEPSIZE DURING WHICH ANY PARTICLE CANNOT MOVE MORE THAN ONE CELL
 =  5.447    (WHEN MIN. R.F.=1)  AT K=   4, I=   1, J=  73

 MAXIMUM STEPSIZE WHICH MEETS STABILITY CRITERION OF THE ADVECTION TERM
 (FOR PURE FINITE-DIFFERENCE OPTION, MIXELM=0) 
 =  3.846    (WHEN MIN. R.F.=1)  AT K=   2, I=   1, J=  79


 TOTAL NUMBER OF POINT SOURCES/SINKS PRESENT IN THE FLOW MODEL =    62

 MAXIMUM STEPSIZE WHICH MEETS STABILITY CRITERION OF THE SINK & SOURCE TERM
 =  305.7    (WHEN MIN. R.F.=1)  AT K=   2, I=   1, J= 120

 MAXIMUM STEPSIZE WHICH MEETS STABILITY CRITERION OF THE DISPERSION TERM
 =  20.29    (WHEN MIN. R.F.=1)  AT K=   1, I=   1, J=  31
     1 CALLS TO GCG PACKAGE FOR TRANSPORT TIME STEP   4 IN FLOW TIME STEP 254 STRESS PERIOD   1
     5 TOTAL ITERATIONS
  MAXIMUM CONCENTRATION CHANGES FOR EACH ITERATION:
  MAX. CHANGE LAYER,ROW,COL MAX. CHANGE LAYER,ROW,COL MAX. CHANGE LAYER,ROW,COL MAX. CHANGE LAYER,ROW,COL MAX. CHANGE LAYER,ROW,COL
 ------------------------------------------------------------------------------------------------------------------------------------
   0.2431E-01 (  2,  1, 81)  0.7201E-03 (  2,  1, 79)  0.3450E-04 (  3,  1, 79)  0.1224E-05 (  4,  1, 79)  0.4356E-07 (  4,  1, 78)


                                          ================================================
                                                         FROM TIME =   2540.0     TO    2550.0    

 
 SOLVING FOR HEAD 
 FLOW MODEL IS TRANSIENT
 FLOW MODEL CONTAINS CONSTANT-HEAD CELLS


 MAXIMUM STEPSIZE DURING WHICH ANY PARTICLE CANNOT MOVE MORE THAN ONE CELL
 =  5.395    (WHEN MIN. R.F.=1)  AT K=   4, I=   1, J=  73

 MAXIMUM STEPSIZE WHICH MEETS STABILITY CRITERION OF THE ADVECTION TERM
 (FOR PURE FINITE-DIFFERENCE OPTION, MIXELM=0) 
 =  3.629    (WHEN MIN. R.F.=1)  AT K=   2, I=   1, J=  79


 TOTAL NUMBER OF POINT SOURCES/SINKS PRESENT IN THE FLOW MODEL =    62

 MAXIMUM STEPSIZE WHICH MEETS STABILITY CRITERION OF THE SINK & SOURCE TERM
 =  310.1    (WHEN MIN. R.F.=1)  AT K=   2, I=   1, J= 120

 MAXIMUM STEPSIZE WHICH MEETS STABILITY CRITERION OF THE DISPERSION TERM
 =  20.29    (WHEN MIN. R.F.=1)  AT K=   1, I=   1, J=  31


     1 CALLS TO GCG PACKAGE FOR TRANSPORT TIME STEP   1 IN FLOW TIME STEP 255 STRESS PERIOD   1
     6 TOTAL ITERATIONS

 NO OUTPUT CONTROL FOR STRESS PERIOD    1   TIME STEP 255
 
 SOLVING FOR HEAD 
 FLOW MODEL IS TRANSIENT
 FLOW MODEL CONTAINS CONSTANT-HEAD CELLS


 MAXIMUM STEPSIZE DURING WHICH ANY PARTICLE CANNOT MOVE MORE THAN ONE CELL
 =  5.340    (WHEN MIN. R.F.=1)  AT K=   4, I=   1, J=  73

 MAXIMUM STEPSIZE WHICH MEETS STABILITY CRITERION OF THE ADVECTION TERM
 (FOR PURE FINITE-DIFFERENCE OPTION, MIXELM=0) 
 =  3.458    (WHEN MIN. R.F.=1)  AT K=   2, I=   1, J=  79


 TOTAL NUMBER OF POINT SOURCES/SINKS PRESENT IN THE FLOW MODEL =    62

 MAXIMUM STEPSIZE WHICH MEETS STABILITY CRITERION OF THE SINK & SOURCE TERM
 =  298.2    (WHEN MIN. R.F.=1)  AT K=   2, I=   1, J= 120

 MAXIMUM STEPSIZE WHICH MEETS STABILITY CRITERION OF THE DISPERSION TERM
 =  20.29    (WHEN MIN. R.F.=1)  AT K=   1, I=   1, J=  31
     1 CALLS TO GCG PACKAGE FOR TRANSPORT TIME STEP   2 IN FLOW TIME STEP 255 STRESS PERIOD   1
     6 TOTAL ITERATIONS
 
 SOLVING FOR HEAD 
 FLOW MODEL IS TRANSIENT
 FLOW MODEL CONTAINS CONSTANT-HEAD CELLS


 MAXIMUM STEPSIZE DURING WHICH ANY PARTICLE CANNOT MOVE MORE THAN ONE CELL
 =  5.312    (WHEN MIN. R.F.=1)  AT K=   4, I=   1, J=  73

 MAXIMUM STEPSIZE WHICH MEETS STABILITY CRITERION OF THE ADVECTION TERM
 (FOR PURE FINITE-DIFFERENCE OPTION, MIXELM=0) 
 =  3.450    (WHEN MIN. R.F.=1)  AT K=   2, I=   1, J=  79


 TOTAL NUMBER OF POINT SOURCES/SINKS PRESENT IN THE FLOW MODEL =    62

 MAXIMUM STEPSIZE WHICH MEETS STABILITY CRITERION OF THE SINK & SOURCE TERM
 =  310.9    (WHEN MIN. R.F.=1)  AT K=   2, I=   1, J= 120

 MAXIMUM STEPSIZE WHICH MEETS STABILITY CRITERION OF THE DISPERSION TERM
 =  20.29    (WHEN MIN. R.F.=1)  AT K=   1, I=   1, J=  31
     1 CALLS TO GCG PACKAGE FOR TRANSPORT TIME STEP   3 IN FLOW TIME STEP 255 STRESS PERIOD   1
     6 TOTAL ITERATIONS
 
 SOLVING FOR HEAD 
 FLOW MODEL IS TRANSIENT
 FLOW MODEL CONTAINS CONSTANT-HEAD CELLS


 MAXIMUM STEPSIZE DURING WHICH ANY PARTICLE CANNOT MOVE MORE THAN ONE CELL
 =  5.310    (WHEN MIN. R.F.=1)  AT K=   4, I=   1, J=  73

 MAXIMUM STEPSIZE WHICH MEETS STABILITY CRITERION OF THE ADVECTION TERM
 (FOR PURE FINITE-DIFFERENCE OPTION, MIXELM=0) 
 =  3.578    (WHEN MIN. R.F.=1)  AT K=   2, I=   1, J=  79


 TOTAL NUMBER OF POINT SOURCES/SINKS PRESENT IN THE FLOW MODEL =    62

 MAXIMUM STEPSIZE WHICH MEETS STABILITY CRITERION OF THE SINK & SOURCE TERM
 =  317.9    (WHEN MIN. R.F.=1)  AT K=   2, I=   1, J= 120

 MAXIMUM STEPSIZE WHICH MEETS STABILITY CRITERION OF THE DISPERSION TERM
 =  20.29    (WHEN MIN. R.F.=1)  AT K=   1, I=   1, J=  31
     1 CALLS TO GCG PACKAGE FOR TRANSPORT TIME STEP   4 IN FLOW TIME STEP 255 STRESS PERIOD   1
     5 TOTAL ITERATIONS
  MAXIMUM CONCENTRATION CHANGES FOR EACH ITERATION:
  MAX. CHANGE LAYER,ROW,COL MAX. CHANGE LAYER,ROW,COL MAX. CHANGE LAYER,ROW,COL MAX. CHANGE LAYER,ROW,COL MAX. CHANGE LAYER,ROW,COL
 ------------------------------------------------------------------------------------------------------------------------------------
   0.2377E-01 (  2,  1, 80)  0.6143E-03 (  2,  1, 78)  0.3165E-04 (  3,  1, 78)  0.1054E-05 (  4,  1, 78)  0.3562E-07 (  5,  1, 78)


                                          ================================================
                                                         FROM TIME =   2550.0     TO    2560.0    

 
 SOLVING FOR HEAD 
 FLOW MODEL IS TRANSIENT
 FLOW MODEL CONTAINS CONSTANT-HEAD CELLS


 MAXIMUM STEPSIZE DURING WHICH ANY PARTICLE CANNOT MOVE MORE THAN ONE CELL
 =  5.325    (WHEN MIN. R.F.=1)  AT K=   4, I=   1, J=  73

 MAXIMUM STEPSIZE WHICH MEETS STABILITY CRITERION OF THE ADVECTION TERM
 (FOR PURE FINITE-DIFFERENCE OPTION, MIXELM=0) 
 =  3.807    (WHEN MIN. R.F.=1)  AT K=   2, I=   1, J=  79


 TOTAL NUMBER OF POINT SOURCES/SINKS PRESENT IN THE FLOW MODEL =    62

 MAXIMUM STEPSIZE WHICH MEETS STABILITY CRITERION OF THE SINK & SOURCE TERM
 =  336.5    (WHEN MIN. R.F.=1)  AT K=   2, I=   1, J= 120

 MAXIMUM STEPSIZE WHICH MEETS STABILITY CRITERION OF THE DISPERSION TERM
 =  20.29    (WHEN MIN. R.F.=1)  AT K=   1, I=   1, J=  31


     1 CALLS TO GCG PACKAGE FOR TRANSPORT TIME STEP   1 IN FLOW TIME STEP 256 STRESS PERIOD   1
     6 TOTAL ITERATIONS

 NO OUTPUT CONTROL FOR STRESS PERIOD    1   TIME STEP 256
 
 SOLVING FOR HEAD 
 FLOW MODEL IS TRANSIENT
 FLOW MODEL CONTAINS CONSTANT-HEAD CELLS


 MAXIMUM STEPSIZE DURING WHICH ANY PARTICLE CANNOT MOVE MORE THAN ONE CELL
 =  5.363    (WHEN MIN. R.F.=1)  AT K=   4, I=   1, J=  73

 MAXIMUM STEPSIZE WHICH MEETS STABILITY CRITERION OF THE ADVECTION TERM
 (FOR PURE FINITE-DIFFERENCE OPTION, MIXELM=0) 
 =  3.724    (WHEN MIN. R.F.=1)  AT K=   2, I=   1, J=  78


 TOTAL NUMBER OF POINT SOURCES/SINKS PRESENT IN THE FLOW MODEL =    62

 MAXIMUM STEPSIZE WHICH MEETS STABILITY CRITERION OF THE SINK & SOURCE TERM
 =  323.5    (WHEN MIN. R.F.=1)  AT K=   2, I=   1, J= 120

 MAXIMUM STEPSIZE WHICH MEETS STABILITY CRITERION OF THE DISPERSION TERM
 =  20.29    (WHEN MIN. R.F.=1)  AT K=   1, I=   1, J=  31
     1 CALLS TO GCG PACKAGE FOR TRANSPORT TIME STEP   2 IN FLOW TIME STEP 256 STRESS PERIOD   1
     6 TOTAL ITERATIONS
 
 SOLVING FOR HEAD 
 FLOW MODEL IS TRANSIENT
 FLOW MODEL CONTAINS CONSTANT-HEAD CELLS


 MAXIMUM STEPSIZE DURING WHICH ANY PARTICLE CANNOT MOVE MORE THAN ONE CELL
 =  5.412    (WHEN MIN. R.F.=1)  AT K=   5, I=   1, J=  73

 MAXIMUM STEPSIZE WHICH MEETS STABILITY CRITERION OF THE ADVECTION TERM
 (FOR PURE FINITE-DIFFERENCE OPTION, MIXELM=0) 
 =  3.553    (WHEN MIN. R.F.=1)  AT K=   2, I=   1, J=  78


 TOTAL NUMBER OF POINT SOURCES/SINKS PRESENT IN THE FLOW MODEL =    62

 MAXIMUM STEPSIZE WHICH MEETS STABILITY CRITERION OF THE SINK & SOURCE TERM
 =  322.4    (WHEN MIN. R.F.=1)  AT K=   2, I=   1, J= 120

 MAXIMUM STEPSIZE WHICH MEETS STABILITY CRITERION OF THE DISPERSION TERM
 =  20.29    (WHEN MIN. R.F.=1)  AT K=   1, I=   1, J=  31
     1 CALLS TO GCG PACKAGE FOR TRANSPORT TIME STEP   3 IN FLOW TIME STEP 256 STRESS PERIOD   1
     6 TOTAL ITERATIONS
 
 SOLVING FOR HEAD 
 FLOW MODEL IS TRANSIENT
 FLOW MODEL CONTAINS CONSTANT-HEAD CELLS


 MAXIMUM STEPSIZE DURING WHICH ANY PARTICLE CANNOT MOVE MORE THAN ONE CELL
 =  5.454    (WHEN MIN. R.F.=1)  AT K=   5, I=   1, J=  73

 MAXIMUM STEPSIZE WHICH MEETS STABILITY CRITERION OF THE ADVECTION TERM
 (FOR PURE FINITE-DIFFERENCE OPTION, MIXELM=0) 
 =  3.531    (WHEN MIN. R.F.=1)  AT K=   2, I=   1, J=  78


 TOTAL NUMBER OF POINT SOURCES/SINKS PRESENT IN THE FLOW MODEL =    62

 MAXIMUM STEPSIZE WHICH MEETS STABILITY CRITERION OF THE SINK & SOURCE TERM
 =  323.7    (WHEN MIN. R.F.=1)  AT K=   2, I=   1, J= 120

 MAXIMUM STEPSIZE WHICH MEETS STABILITY CRITERION OF THE DISPERSION TERM
 =  20.29    (WHEN MIN. R.F.=1)  AT K=   1, I=   1, J=  31
     1 CALLS TO GCG PACKAGE FOR TRANSPORT TIME STEP   4 IN FLOW TIME STEP 256 STRESS PERIOD   1
     5 TOTAL ITERATIONS
  MAXIMUM CONCENTRATION CHANGES FOR EACH ITERATION:
  MAX. CHANGE LAYER,ROW,COL MAX. CHANGE LAYER,ROW,COL MAX. CHANGE LAYER,ROW,COL MAX. CHANGE LAYER,ROW,COL MAX. CHANGE LAYER,ROW,COL
 ------------------------------------------------------------------------------------------------------------------------------------
   0.2137E-01 (  2,  1, 79)  0.5431E-03 (  2,  1, 79)  0.1767E-04 (  2,  1, 80)  0.7290E-06 (  3,  1, 75)  0.2019E-07 (  3,  1, 88)


                                          ================================================
                                                         FROM TIME =   2560.0     TO    2570.0    

 
 SOLVING FOR HEAD 
 FLOW MODEL IS TRANSIENT
 FLOW MODEL CONTAINS CONSTANT-HEAD CELLS


 MAXIMUM STEPSIZE DURING WHICH ANY PARTICLE CANNOT MOVE MORE THAN ONE CELL
 =  5.494    (WHEN MIN. R.F.=1)  AT K=   5, I=   1, J=  73

 MAXIMUM STEPSIZE WHICH MEETS STABILITY CRITERION OF THE ADVECTION TERM
 (FOR PURE FINITE-DIFFERENCE OPTION, MIXELM=0) 
 =  3.587    (WHEN MIN. R.F.=1)  AT K=   2, I=   1, J=  78


 TOTAL NUMBER OF POINT SOURCES/SINKS PRESENT IN THE FLOW MODEL =    62

 MAXIMUM STEPSIZE WHICH MEETS STABILITY CRITERION OF THE SINK & SOURCE TERM
 =  358.4    (WHEN MIN. R.F.=1)  AT K=   2, I=   1, J= 120

 MAXIMUM STEPSIZE WHICH MEETS STABILITY CRITERION OF THE DISPERSION TERM
 =  20.29    (WHEN MIN. R.F.=1)  AT K=   1, I=   1, J=  31


     1 CALLS TO GCG PACKAGE FOR TRANSPORT TIME STEP   1 IN FLOW TIME STEP 257 STRESS PERIOD   1
     6 TOTAL ITERATIONS

 NO OUTPUT CONTROL FOR STRESS PERIOD    1   TIME STEP 257
 
 SOLVING FOR HEAD 
 FLOW MODEL IS TRANSIENT
 FLOW MODEL CONTAINS CONSTANT-HEAD CELLS


 MAXIMUM STEPSIZE DURING WHICH ANY PARTICLE CANNOT MOVE MORE THAN ONE CELL
 =  5.572    (WHEN MIN. R.F.=1)  AT K=   5, I=   1, J=  73

 MAXIMUM STEPSIZE WHICH MEETS STABILITY CRITERION OF THE ADVECTION TERM
 (FOR PURE FINITE-DIFFERENCE OPTION, MIXELM=0) 
 =  3.793    (WHEN MIN. R.F.=1)  AT K=   2, I=   1, J=  78


 TOTAL NUMBER OF POINT SOURCES/SINKS PRESENT IN THE FLOW MODEL =    62

 MAXIMUM STEPSIZE WHICH MEETS STABILITY CRITERION OF THE SINK & SOURCE TERM
 =  349.9    (WHEN MIN. R.F.=1)  AT K=   2, I=   1, J= 120

 MAXIMUM STEPSIZE WHICH MEETS STABILITY CRITERION OF THE DISPERSION TERM
 =  20.29    (WHEN MIN. R.F.=1)  AT K=   1, I=   1, J=  31
     1 CALLS TO GCG PACKAGE FOR TRANSPORT TIME STEP   2 IN FLOW TIME STEP 257 STRESS PERIOD   1
     6 TOTAL ITERATIONS
 
 SOLVING FOR HEAD 
 FLOW MODEL IS TRANSIENT
 FLOW MODEL CONTAINS CONSTANT-HEAD CELLS


 MAXIMUM STEPSIZE DURING WHICH ANY PARTICLE CANNOT MOVE MORE THAN ONE CELL
 =  5.671    (WHEN MIN. R.F.=1)  AT K=   5, I=   1, J=  73

 MAXIMUM STEPSIZE WHICH MEETS STABILITY CRITERION OF THE ADVECTION TERM
 (FOR PURE FINITE-DIFFERENCE OPTION, MIXELM=0) 
 =  3.965    (WHEN MIN. R.F.=1)  AT K=   2, I=   1, J=  77


 TOTAL NUMBER OF POINT SOURCES/SINKS PRESENT IN THE FLOW MODEL =    62

 MAXIMUM STEPSIZE WHICH MEETS STABILITY CRITERION OF THE SINK & SOURCE TERM
 =  336.5    (WHEN MIN. R.F.=1)  AT K=   2, I=   1, J= 120

 MAXIMUM STEPSIZE WHICH MEETS STABILITY CRITERION OF THE DISPERSION TERM
 =  20.29    (WHEN MIN. R.F.=1)  AT K=   1, I=   1, J=  31
     1 CALLS TO GCG PACKAGE FOR TRANSPORT TIME STEP   3 IN FLOW TIME STEP 257 STRESS PERIOD   1
     6 TOTAL ITERATIONS
 
 SOLVING FOR HEAD 
 FLOW MODEL IS TRANSIENT
 FLOW MODEL CONTAINS CONSTANT-HEAD CELLS


 MAXIMUM STEPSIZE DURING WHICH ANY PARTICLE CANNOT MOVE MORE THAN ONE CELL
 =  5.773    (WHEN MIN. R.F.=1)  AT K=   4, I=   1, J=  60

 MAXIMUM STEPSIZE WHICH MEETS STABILITY CRITERION OF THE ADVECTION TERM
 (FOR PURE FINITE-DIFFERENCE OPTION, MIXELM=0) 
 =  3.712    (WHEN MIN. R.F.=1)  AT K=   2, I=   1, J=  77


 TOTAL NUMBER OF POINT SOURCES/SINKS PRESENT IN THE FLOW MODEL =    62

 MAXIMUM STEPSIZE WHICH MEETS STABILITY CRITERION OF THE SINK & SOURCE TERM
 =  323.1    (WHEN MIN. R.F.=1)  AT K=   2, I=   1, J= 120

 MAXIMUM STEPSIZE WHICH MEETS STABILITY CRITERION OF THE DISPERSION TERM
 =  20.29    (WHEN MIN. R.F.=1)  AT K=   1, I=   1, J=  31
     1 CALLS TO GCG PACKAGE FOR TRANSPORT TIME STEP   4 IN FLOW TIME STEP 257 STRESS PERIOD   1
     5 TOTAL ITERATIONS
  MAXIMUM CONCENTRATION CHANGES FOR EACH ITERATION:
  MAX. CHANGE LAYER,ROW,COL MAX. CHANGE LAYER,ROW,COL MAX. CHANGE LAYER,ROW,COL MAX. CHANGE LAYER,ROW,COL MAX. CHANGE LAYER,ROW,COL
 ------------------------------------------------------------------------------------------------------------------------------------
   0.2163E-01 (  2,  1, 38)  0.6455E-03 (  2,  1, 77)  0.1871E-04 (  3,  1, 77)  0.7028E-06 (  3,  1, 32)  0.3278E-07 (  5,  1, 80)


                                          ================================================
                                                         FROM TIME =   2570.0     TO    2580.0    

 
 SOLVING FOR HEAD 
 FLOW MODEL IS TRANSIENT
 FLOW MODEL CONTAINS CONSTANT-HEAD CELLS


 MAXIMUM STEPSIZE DURING WHICH ANY PARTICLE CANNOT MOVE MORE THAN ONE CELL
 =  5.777    (WHEN MIN. R.F.=1)  AT K=   4, I=   1, J=  60

 MAXIMUM STEPSIZE WHICH MEETS STABILITY CRITERION OF THE ADVECTION TERM
 (FOR PURE FINITE-DIFFERENCE OPTION, MIXELM=0) 
 =  3.649    (WHEN MIN. R.F.=1)  AT K=   2, I=   1, J=  77


 TOTAL NUMBER OF POINT SOURCES/SINKS PRESENT IN THE FLOW MODEL =    62

 MAXIMUM STEPSIZE WHICH MEETS STABILITY CRITERION OF THE SINK & SOURCE TERM
 =  325.3    (WHEN MIN. R.F.=1)  AT K=   2, I=   1, J= 120

 MAXIMUM STEPSIZE WHICH MEETS STABILITY CRITERION OF THE DISPERSION TERM
 =  20.29    (WHEN MIN. R.F.=1)  AT K=   1, I=   1, J=  31


     1 CALLS TO GCG PACKAGE FOR TRANSPORT TIME STEP   1 IN FLOW TIME STEP 258 STRESS PERIOD   1
     6 TOTAL ITERATIONS

 NO OUTPUT CONTROL FOR STRESS PERIOD    1   TIME STEP 258
 
 SOLVING FOR HEAD 
 FLOW MODEL IS TRANSIENT
 FLOW MODEL CONTAINS CONSTANT-HEAD CELLS


 MAXIMUM STEPSIZE DURING WHICH ANY PARTICLE CANNOT MOVE MORE THAN ONE CELL
 =  5.781    (WHEN MIN. R.F.=1)  AT K=   4, I=   1, J=  60

 MAXIMUM STEPSIZE WHICH MEETS STABILITY CRITERION OF THE ADVECTION TERM
 (FOR PURE FINITE-DIFFERENCE OPTION, MIXELM=0) 
 =  3.642    (WHEN MIN. R.F.=1)  AT K=   2, I=   1, J=  77


 TOTAL NUMBER OF POINT SOURCES/SINKS PRESENT IN THE FLOW MODEL =    62

 MAXIMUM STEPSIZE WHICH MEETS STABILITY CRITERION OF THE SINK & SOURCE TERM
 =  316.5    (WHEN MIN. R.F.=1)  AT K=   2, I=   1, J= 120

 MAXIMUM STEPSIZE WHICH MEETS STABILITY CRITERION OF THE DISPERSION TERM
 =  20.29    (WHEN MIN. R.F.=1)  AT K=   1, I=   1, J=  31
     1 CALLS TO GCG PACKAGE FOR TRANSPORT TIME STEP   2 IN FLOW TIME STEP 258 STRESS PERIOD   1
     6 TOTAL ITERATIONS
 
 SOLVING FOR HEAD 
 FLOW MODEL IS TRANSIENT
 FLOW MODEL CONTAINS CONSTANT-HEAD CELLS


 MAXIMUM STEPSIZE DURING WHICH ANY PARTICLE CANNOT MOVE MORE THAN ONE CELL
 =  5.784    (WHEN MIN. R.F.=1)  AT K=   4, I=   1, J=  60

 MAXIMUM STEPSIZE WHICH MEETS STABILITY CRITERION OF THE ADVECTION TERM
 (FOR PURE FINITE-DIFFERENCE OPTION, MIXELM=0) 
 =  3.742    (WHEN MIN. R.F.=1)  AT K=   2, I=   1, J=  77


 TOTAL NUMBER OF POINT SOURCES/SINKS PRESENT IN THE FLOW MODEL =    62

 MAXIMUM STEPSIZE WHICH MEETS STABILITY CRITERION OF THE SINK & SOURCE TERM
 =  323.1    (WHEN MIN. R.F.=1)  AT K=   2, I=   1, J= 120

 MAXIMUM STEPSIZE WHICH MEETS STABILITY CRITERION OF THE DISPERSION TERM
 =  20.29    (WHEN MIN. R.F.=1)  AT K=   1, I=   1, J=  31
     1 CALLS TO GCG PACKAGE FOR TRANSPORT TIME STEP   3 IN FLOW TIME STEP 258 STRESS PERIOD   1
     6 TOTAL ITERATIONS
 
 SOLVING FOR HEAD 
 FLOW MODEL IS TRANSIENT
 FLOW MODEL CONTAINS CONSTANT-HEAD CELLS


 MAXIMUM STEPSIZE DURING WHICH ANY PARTICLE CANNOT MOVE MORE THAN ONE CELL
 =  5.788    (WHEN MIN. R.F.=1)  AT K=   4, I=   1, J=  60

 MAXIMUM STEPSIZE WHICH MEETS STABILITY CRITERION OF THE ADVECTION TERM
 (FOR PURE FINITE-DIFFERENCE OPTION, MIXELM=0) 
 =  3.968    (WHEN MIN. R.F.=1)  AT K=   2, I=   1, J=  41


 TOTAL NUMBER OF POINT SOURCES/SINKS PRESENT IN THE FLOW MODEL =    62

 MAXIMUM STEPSIZE WHICH MEETS STABILITY CRITERION OF THE SINK & SOURCE TERM
 =  314.7    (WHEN MIN. R.F.=1)  AT K=   2, I=   1, J= 120

 MAXIMUM STEPSIZE WHICH MEETS STABILITY CRITERION OF THE DISPERSION TERM
 =  20.29    (WHEN MIN. R.F.=1)  AT K=   1, I=   1, J=  31
     1 CALLS TO GCG PACKAGE FOR TRANSPORT TIME STEP   4 IN FLOW TIME STEP 258 STRESS PERIOD   1
     5 TOTAL ITERATIONS
  MAXIMUM CONCENTRATION CHANGES FOR EACH ITERATION:
  MAX. CHANGE LAYER,ROW,COL MAX. CHANGE LAYER,ROW,COL MAX. CHANGE LAYER,ROW,COL MAX. CHANGE LAYER,ROW,COL MAX. CHANGE LAYER,ROW,COL
 ------------------------------------------------------------------------------------------------------------------------------------
   0.2230E-01 (  2,  1, 78)  0.6436E-03 (  2,  1, 76)  0.2213E-04 (  3,  1, 76)  0.7603E-06 (  3,  1, 79)  0.2190E-07 (  5,  1, 79)


                                          ================================================
                                                         FROM TIME =   2580.0     TO    2590.0    

 
 SOLVING FOR HEAD 
 FLOW MODEL IS TRANSIENT
 FLOW MODEL CONTAINS CONSTANT-HEAD CELLS


 MAXIMUM STEPSIZE DURING WHICH ANY PARTICLE CANNOT MOVE MORE THAN ONE CELL
 =  5.793    (WHEN MIN. R.F.=1)  AT K=   4, I=   1, J=  60

 MAXIMUM STEPSIZE WHICH MEETS STABILITY CRITERION OF THE ADVECTION TERM
 (FOR PURE FINITE-DIFFERENCE OPTION, MIXELM=0) 
 =  3.801    (WHEN MIN. R.F.=1)  AT K=   2, I=   1, J=  41


 TOTAL NUMBER OF POINT SOURCES/SINKS PRESENT IN THE FLOW MODEL =    62

 MAXIMUM STEPSIZE WHICH MEETS STABILITY CRITERION OF THE SINK & SOURCE TERM
 =  312.4    (WHEN MIN. R.F.=1)  AT K=   2, I=   1, J= 120

 MAXIMUM STEPSIZE WHICH MEETS STABILITY CRITERION OF THE DISPERSION TERM
 =  20.29    (WHEN MIN. R.F.=1)  AT K=   1, I=   1, J=  31


     1 CALLS TO GCG PACKAGE FOR TRANSPORT TIME STEP   1 IN FLOW TIME STEP 259 STRESS PERIOD   1
     6 TOTAL ITERATIONS

 NO OUTPUT CONTROL FOR STRESS PERIOD    1   TIME STEP 259
 
 SOLVING FOR HEAD 
 FLOW MODEL IS TRANSIENT
 FLOW MODEL CONTAINS CONSTANT-HEAD CELLS


 MAXIMUM STEPSIZE DURING WHICH ANY PARTICLE CANNOT MOVE MORE THAN ONE CELL
 =  5.527    (WHEN MIN. R.F.=1)  AT K=   4, I=   1, J=  48

 MAXIMUM STEPSIZE WHICH MEETS STABILITY CRITERION OF THE ADVECTION TERM
 (FOR PURE FINITE-DIFFERENCE OPTION, MIXELM=0) 
 =  3.670    (WHEN MIN. R.F.=1)  AT K=   2, I=   1, J=  41


 TOTAL NUMBER OF POINT SOURCES/SINKS PRESENT IN THE FLOW MODEL =    62

 MAXIMUM STEPSIZE WHICH MEETS STABILITY CRITERION OF THE SINK & SOURCE TERM
 =  293.2    (WHEN MIN. R.F.=1)  AT K=   2, I=   1, J= 120

 MAXIMUM STEPSIZE WHICH MEETS STABILITY CRITERION OF THE DISPERSION TERM
 =  20.29    (WHEN MIN. R.F.=1)  AT K=   1, I=   1, J=  31
     1 CALLS TO GCG PACKAGE FOR TRANSPORT TIME STEP   2 IN FLOW TIME STEP 259 STRESS PERIOD   1
     6 TOTAL ITERATIONS
 
 SOLVING FOR HEAD 
 FLOW MODEL IS TRANSIENT
 FLOW MODEL CONTAINS CONSTANT-HEAD CELLS


 MAXIMUM STEPSIZE DURING WHICH ANY PARTICLE CANNOT MOVE MORE THAN ONE CELL
 =  5.338    (WHEN MIN. R.F.=1)  AT K=   4, I=   1, J=  48

 MAXIMUM STEPSIZE WHICH MEETS STABILITY CRITERION OF THE ADVECTION TERM
 (FOR PURE FINITE-DIFFERENCE OPTION, MIXELM=0) 
 =  3.694    (WHEN MIN. R.F.=1)  AT K=   2, I=   1, J=  41


 TOTAL NUMBER OF POINT SOURCES/SINKS PRESENT IN THE FLOW MODEL =    62

 MAXIMUM STEPSIZE WHICH MEETS STABILITY CRITERION OF THE SINK & SOURCE TERM
 =  295.5    (WHEN MIN. R.F.=1)  AT K=   2, I=   1, J= 120

 MAXIMUM STEPSIZE WHICH MEETS STABILITY CRITERION OF THE DISPERSION TERM
 =  20.29    (WHEN MIN. R.F.=1)  AT K=   1, I=   1, J=  31
     1 CALLS TO GCG PACKAGE FOR TRANSPORT TIME STEP   3 IN FLOW TIME STEP 259 STRESS PERIOD   1
     6 TOTAL ITERATIONS
 
 SOLVING FOR HEAD 
 FLOW MODEL IS TRANSIENT
 FLOW MODEL CONTAINS CONSTANT-HEAD CELLS


 MAXIMUM STEPSIZE DURING WHICH ANY PARTICLE CANNOT MOVE MORE THAN ONE CELL
 =  5.227    (WHEN MIN. R.F.=1)  AT K=   4, I=   1, J=  48

 MAXIMUM STEPSIZE WHICH MEETS STABILITY CRITERION OF THE ADVECTION TERM
 (FOR PURE FINITE-DIFFERENCE OPTION, MIXELM=0) 
 =  3.904    (WHEN MIN. R.F.=1)  AT K=   2, I=   1, J=  41


 TOTAL NUMBER OF POINT SOURCES/SINKS PRESENT IN THE FLOW MODEL =    62

 MAXIMUM STEPSIZE WHICH MEETS STABILITY CRITERION OF THE SINK & SOURCE TERM
 =  298.4    (WHEN MIN. R.F.=1)  AT K=   2, I=   1, J= 120

 MAXIMUM STEPSIZE WHICH MEETS STABILITY CRITERION OF THE DISPERSION TERM
 =  20.29    (WHEN MIN. R.F.=1)  AT K=   1, I=   1, J=  31
     1 CALLS TO GCG PACKAGE FOR TRANSPORT TIME STEP   4 IN FLOW TIME STEP 259 STRESS PERIOD   1
     5 TOTAL ITERATIONS
  MAXIMUM CONCENTRATION CHANGES FOR EACH ITERATION:
  MAX. CHANGE LAYER,ROW,COL MAX. CHANGE LAYER,ROW,COL MAX. CHANGE LAYER,ROW,COL MAX. CHANGE LAYER,ROW,COL MAX. CHANGE LAYER,ROW,COL
 ------------------------------------------------------------------------------------------------------------------------------------
   0.1677E-01 (  2,  1, 40)  0.3703E-03 (  2,  1, 77)  0.1329E-04 (  3,  1, 42)  0.3650E-06 (  4,  1, 42)  0.1025E-07 (  4,  1, 82)


                                          ================================================
                                                         FROM TIME =   2590.0     TO    2600.0    

 
 SOLVING FOR HEAD 
 FLOW MODEL IS TRANSIENT
 FLOW MODEL CONTAINS CONSTANT-HEAD CELLS


 MAXIMUM STEPSIZE DURING WHICH ANY PARTICLE CANNOT MOVE MORE THAN ONE CELL
 =  5.195    (WHEN MIN. R.F.=1)  AT K=   4, I=   1, J=  48

 MAXIMUM STEPSIZE WHICH MEETS STABILITY CRITERION OF THE ADVECTION TERM
 (FOR PURE FINITE-DIFFERENCE OPTION, MIXELM=0) 
 =  3.927    (WHEN MIN. R.F.=1)  AT K=   2, I=   1, J=  42


 TOTAL NUMBER OF POINT SOURCES/SINKS PRESENT IN THE FLOW MODEL =    62

 MAXIMUM STEPSIZE WHICH MEETS STABILITY CRITERION OF THE SINK & SOURCE TERM
 =  309.1    (WHEN MIN. R.F.=1)  AT K=   2, I=   1, J= 120

 MAXIMUM STEPSIZE WHICH MEETS STABILITY CRITERION OF THE DISPERSION TERM
 =  20.29    (WHEN MIN. R.F.=1)  AT K=   1, I=   1, J=  31


     1 CALLS TO GCG PACKAGE FOR TRANSPORT TIME STEP   1 IN FLOW TIME STEP 260 STRESS PERIOD   1
     6 TOTAL ITERATIONS

 NO OUTPUT CONTROL FOR STRESS PERIOD    1   TIME STEP 260
 
 SOLVING FOR HEAD 
 FLOW MODEL IS TRANSIENT
 FLOW MODEL CONTAINS CONSTANT-HEAD CELLS


 MAXIMUM STEPSIZE DURING WHICH ANY PARTICLE CANNOT MOVE MORE THAN ONE CELL
 =  5.176    (WHEN MIN. R.F.=1)  AT K=   4, I=   1, J=  48

 MAXIMUM STEPSIZE WHICH MEETS STABILITY CRITERION OF THE ADVECTION TERM
 (FOR PURE FINITE-DIFFERENCE OPTION, MIXELM=0) 
 =  3.676    (WHEN MIN. R.F.=1)  AT K=   2, I=   1, J=  42


 TOTAL NUMBER OF POINT SOURCES/SINKS PRESENT IN THE FLOW MODEL =    62

 MAXIMUM STEPSIZE WHICH MEETS STABILITY CRITERION OF THE SINK & SOURCE TERM
 =  281.9    (WHEN MIN. R.F.=1)  AT K=   2, I=   1, J= 120

 MAXIMUM STEPSIZE WHICH MEETS STABILITY CRITERION OF THE DISPERSION TERM
 =  20.29    (WHEN MIN. R.F.=1)  AT K=   1, I=   1, J=  31
     1 CALLS TO GCG PACKAGE FOR TRANSPORT TIME STEP   2 IN FLOW TIME STEP 260 STRESS PERIOD   1
     6 TOTAL ITERATIONS
 
 SOLVING FOR HEAD 
 FLOW MODEL IS TRANSIENT
 FLOW MODEL CONTAINS CONSTANT-HEAD CELLS


 MAXIMUM STEPSIZE DURING WHICH ANY PARTICLE CANNOT MOVE MORE THAN ONE CELL
 =  5.211    (WHEN MIN. R.F.=1)  AT K=   4, I=   1, J=  48

 MAXIMUM STEPSIZE WHICH MEETS STABILITY CRITERION OF THE ADVECTION TERM
 (FOR PURE FINITE-DIFFERENCE OPTION, MIXELM=0) 
 =  3.612    (WHEN MIN. R.F.=1)  AT K=   2, I=   1, J=  42


 TOTAL NUMBER OF POINT SOURCES/SINKS PRESENT IN THE FLOW MODEL =    62

 MAXIMUM STEPSIZE WHICH MEETS STABILITY CRITERION OF THE SINK & SOURCE TERM
 =  272.1    (WHEN MIN. R.F.=1)  AT K=   2, I=   1, J= 120

 MAXIMUM STEPSIZE WHICH MEETS STABILITY CRITERION OF THE DISPERSION TERM
 =  20.29    (WHEN MIN. R.F.=1)  AT K=   1, I=   1, J=  31
     1 CALLS TO GCG PACKAGE FOR TRANSPORT TIME STEP   3 IN FLOW TIME STEP 260 STRESS PERIOD   1
     6 TOTAL ITERATIONS
 
 SOLVING FOR HEAD 
 FLOW MODEL IS TRANSIENT
 FLOW MODEL CONTAINS CONSTANT-HEAD CELLS


 MAXIMUM STEPSIZE DURING WHICH ANY PARTICLE CANNOT MOVE MORE THAN ONE CELL
 =  5.286    (WHEN MIN. R.F.=1)  AT K=   4, I=   1, J=  48

 MAXIMUM STEPSIZE WHICH MEETS STABILITY CRITERION OF THE ADVECTION TERM
 (FOR PURE FINITE-DIFFERENCE OPTION, MIXELM=0) 
 =  3.682    (WHEN MIN. R.F.=1)  AT K=   2, I=   1, J=  42


 TOTAL NUMBER OF POINT SOURCES/SINKS PRESENT IN THE FLOW MODEL =    62

 MAXIMUM STEPSIZE WHICH MEETS STABILITY CRITERION OF THE SINK & SOURCE TERM
 =  269.9    (WHEN MIN. R.F.=1)  AT K=   2, I=   1, J= 120

 MAXIMUM STEPSIZE WHICH MEETS STABILITY CRITERION OF THE DISPERSION TERM
 =  20.29    (WHEN MIN. R.F.=1)  AT K=   1, I=   1, J=  31
     1 CALLS TO GCG PACKAGE FOR TRANSPORT TIME STEP   4 IN FLOW TIME STEP 260 STRESS PERIOD   1
     5 TOTAL ITERATIONS
  MAXIMUM CONCENTRATION CHANGES FOR EACH ITERATION:
  MAX. CHANGE LAYER,ROW,COL MAX. CHANGE LAYER,ROW,COL MAX. CHANGE LAYER,ROW,COL MAX. CHANGE LAYER,ROW,COL MAX. CHANGE LAYER,ROW,COL
 ------------------------------------------------------------------------------------------------------------------------------------
   0.1510E-01 (  2,  1, 90)  0.3201E-03 (  2,  1, 83)  0.1161E-04 (  3,  1, 43)  0.2898E-06 (  4,  1, 43)  0.8540E-08 (  4,  1, 81)


                                          ================================================
                                                         FROM TIME =   2600.0     TO    2610.0    

 
 SOLVING FOR HEAD 
 FLOW MODEL IS TRANSIENT
 FLOW MODEL CONTAINS CONSTANT-HEAD CELLS


 MAXIMUM STEPSIZE DURING WHICH ANY PARTICLE CANNOT MOVE MORE THAN ONE CELL
 =  5.312    (WHEN MIN. R.F.=1)  AT K=   5, I=   1, J=  48

 MAXIMUM STEPSIZE WHICH MEETS STABILITY CRITERION OF THE ADVECTION TERM
 (FOR PURE FINITE-DIFFERENCE OPTION, MIXELM=0) 
 =  3.782    (WHEN MIN. R.F.=1)  AT K=   2, I=   1, J=  42


 TOTAL NUMBER OF POINT SOURCES/SINKS PRESENT IN THE FLOW MODEL =    62

 MAXIMUM STEPSIZE WHICH MEETS STABILITY CRITERION OF THE SINK & SOURCE TERM
 =  289.7    (WHEN MIN. R.F.=1)  AT K=   2, I=   1, J= 120

 MAXIMUM STEPSIZE WHICH MEETS STABILITY CRITERION OF THE DISPERSION TERM
 =  20.29    (WHEN MIN. R.F.=1)  AT K=   1, I=   1, J=  31


     1 CALLS TO GCG PACKAGE FOR TRANSPORT TIME STEP   1 IN FLOW TIME STEP 261 STRESS PERIOD   1
     6 TOTAL ITERATIONS

 NO OUTPUT CONTROL FOR STRESS PERIOD    1   TIME STEP 261
 
 SOLVING FOR HEAD 
 FLOW MODEL IS TRANSIENT
 FLOW MODEL CONTAINS CONSTANT-HEAD CELLS


 MAXIMUM STEPSIZE DURING WHICH ANY PARTICLE CANNOT MOVE MORE THAN ONE CELL
 =  5.382    (WHEN MIN. R.F.=1)  AT K=   5, I=   1, J=  48

 MAXIMUM STEPSIZE WHICH MEETS STABILITY CRITERION OF THE ADVECTION TERM
 (FOR PURE FINITE-DIFFERENCE OPTION, MIXELM=0) 
 =  3.987    (WHEN MIN. R.F.=1)  AT K=   2, I=   1, J=  43


 TOTAL NUMBER OF POINT SOURCES/SINKS PRESENT IN THE FLOW MODEL =    62

 MAXIMUM STEPSIZE WHICH MEETS STABILITY CRITERION OF THE SINK & SOURCE TERM
 =  275.0    (WHEN MIN. R.F.=1)  AT K=   2, I=   1, J= 120

 MAXIMUM STEPSIZE WHICH MEETS STABILITY CRITERION OF THE DISPERSION TERM
 =  20.29    (WHEN MIN. R.F.=1)  AT K=   1, I=   1, J=  31
     1 CALLS TO GCG PACKAGE FOR TRANSPORT TIME STEP   2 IN FLOW TIME STEP 261 STRESS PERIOD   1
     6 TOTAL ITERATIONS
 
 SOLVING FOR HEAD 
 FLOW MODEL IS TRANSIENT
 FLOW MODEL CONTAINS CONSTANT-HEAD CELLS


 MAXIMUM STEPSIZE DURING WHICH ANY PARTICLE CANNOT MOVE MORE THAN ONE CELL
 =  5.485    (WHEN MIN. R.F.=1)  AT K=   5, I=   1, J=  48

 MAXIMUM STEPSIZE WHICH MEETS STABILITY CRITERION OF THE ADVECTION TERM
 (FOR PURE FINITE-DIFFERENCE OPTION, MIXELM=0) 
 =  3.737    (WHEN MIN. R.F.=1)  AT K=   2, I=   1, J=  43


 TOTAL NUMBER OF POINT SOURCES/SINKS PRESENT IN THE FLOW MODEL =    62

 MAXIMUM STEPSIZE WHICH MEETS STABILITY CRITERION OF THE SINK & SOURCE TERM
 =  269.8    (WHEN MIN. R.F.=1)  AT K=   2, I=   1, J= 120

 MAXIMUM STEPSIZE WHICH MEETS STABILITY CRITERION OF THE DISPERSION TERM
 =  20.29    (WHEN MIN. R.F.=1)  AT K=   1, I=   1, J=  31
     1 CALLS TO GCG PACKAGE FOR TRANSPORT TIME STEP   3 IN FLOW TIME STEP 261 STRESS PERIOD   1
     6 TOTAL ITERATIONS
 
 SOLVING FOR HEAD 
 FLOW MODEL IS TRANSIENT
 FLOW MODEL CONTAINS CONSTANT-HEAD CELLS


 MAXIMUM STEPSIZE DURING WHICH ANY PARTICLE CANNOT MOVE MORE THAN ONE CELL
 =  5.623    (WHEN MIN. R.F.=1)  AT K=   6, I=   1, J=  48

 MAXIMUM STEPSIZE WHICH MEETS STABILITY CRITERION OF THE ADVECTION TERM
 (FOR PURE FINITE-DIFFERENCE OPTION, MIXELM=0) 
 =  3.655    (WHEN MIN. R.F.=1)  AT K=   2, I=   1, J=  43


 TOTAL NUMBER OF POINT SOURCES/SINKS PRESENT IN THE FLOW MODEL =    62

 MAXIMUM STEPSIZE WHICH MEETS STABILITY CRITERION OF THE SINK & SOURCE TERM
 =  261.3    (WHEN MIN. R.F.=1)  AT K=   2, I=   1, J= 120

 MAXIMUM STEPSIZE WHICH MEETS STABILITY CRITERION OF THE DISPERSION TERM
 =  20.29    (WHEN MIN. R.F.=1)  AT K=   1, I=   1, J=  31
     1 CALLS TO GCG PACKAGE FOR TRANSPORT TIME STEP   4 IN FLOW TIME STEP 261 STRESS PERIOD   1
     5 TOTAL ITERATIONS
  MAXIMUM CONCENTRATION CHANGES FOR EACH ITERATION:
  MAX. CHANGE LAYER,ROW,COL MAX. CHANGE LAYER,ROW,COL MAX. CHANGE LAYER,ROW,COL MAX. CHANGE LAYER,ROW,COL MAX. CHANGE LAYER,ROW,COL
 ------------------------------------------------------------------------------------------------------------------------------------
   0.1675E-01 (  2,  1, 83)  0.3264E-03 (  3,  1, 78)  0.1038E-04 (  2,  1, 77)  0.5083E-06 (  3,  1, 46)  0.1137E-07 (  4,  1, 46)


                                          ================================================
                                                         FROM TIME =   2610.0     TO    2620.0    

 
 SOLVING FOR HEAD 
 FLOW MODEL IS TRANSIENT
 FLOW MODEL CONTAINS CONSTANT-HEAD CELLS


 MAXIMUM STEPSIZE DURING WHICH ANY PARTICLE CANNOT MOVE MORE THAN ONE CELL
 =  5.673    (WHEN MIN. R.F.=1)  AT K=   6, I=   1, J=  48

 MAXIMUM STEPSIZE WHICH MEETS STABILITY CRITERION OF THE ADVECTION TERM
 (FOR PURE FINITE-DIFFERENCE OPTION, MIXELM=0) 
 =  3.669    (WHEN MIN. R.F.=1)  AT K=   2, I=   1, J=  43


 TOTAL NUMBER OF POINT SOURCES/SINKS PRESENT IN THE FLOW MODEL =    62

 MAXIMUM STEPSIZE WHICH MEETS STABILITY CRITERION OF THE SINK & SOURCE TERM
 =  276.4    (WHEN MIN. R.F.=1)  AT K=   2, I=   1, J= 120

 MAXIMUM STEPSIZE WHICH MEETS STABILITY CRITERION OF THE DISPERSION TERM
 =  20.29    (WHEN MIN. R.F.=1)  AT K=   1, I=   1, J=  31


     1 CALLS TO GCG PACKAGE FOR TRANSPORT TIME STEP   1 IN FLOW TIME STEP 262 STRESS PERIOD   1
     6 TOTAL ITERATIONS

 NO OUTPUT CONTROL FOR STRESS PERIOD    1   TIME STEP 262
 
 SOLVING FOR HEAD 
 FLOW MODEL IS TRANSIENT
 FLOW MODEL CONTAINS CONSTANT-HEAD CELLS


 MAXIMUM STEPSIZE DURING WHICH ANY PARTICLE CANNOT MOVE MORE THAN ONE CELL
 =  5.782    (WHEN MIN. R.F.=1)  AT K=   6, I=   1, J=  48

 MAXIMUM STEPSIZE WHICH MEETS STABILITY CRITERION OF THE ADVECTION TERM
 (FOR PURE FINITE-DIFFERENCE OPTION, MIXELM=0) 
 =  3.775    (WHEN MIN. R.F.=1)  AT K=   2, I=   1, J=  43


 TOTAL NUMBER OF POINT SOURCES/SINKS PRESENT IN THE FLOW MODEL =    62

 MAXIMUM STEPSIZE WHICH MEETS STABILITY CRITERION OF THE SINK & SOURCE TERM
 =  263.5    (WHEN MIN. R.F.=1)  AT K=   2, I=   1, J= 120

 MAXIMUM STEPSIZE WHICH MEETS STABILITY CRITERION OF THE DISPERSION TERM
 =  20.29    (WHEN MIN. R.F.=1)  AT K=   1, I=   1, J=  31
     1 CALLS TO GCG PACKAGE FOR TRANSPORT TIME STEP   2 IN FLOW TIME STEP 262 STRESS PERIOD   1
     6 TOTAL ITERATIONS
 
 SOLVING FOR HEAD 
 FLOW MODEL IS TRANSIENT
 FLOW MODEL CONTAINS CONSTANT-HEAD CELLS


 MAXIMUM STEPSIZE DURING WHICH ANY PARTICLE CANNOT MOVE MORE THAN ONE CELL
 =  5.836    (WHEN MIN. R.F.=1)  AT K=   4, I=   1, J=  60

 MAXIMUM STEPSIZE WHICH MEETS STABILITY CRITERION OF THE ADVECTION TERM
 (FOR PURE FINITE-DIFFERENCE OPTION, MIXELM=0) 
 =  3.860    (WHEN MIN. R.F.=1)  AT K=   2, I=   1, J=  81


 TOTAL NUMBER OF POINT SOURCES/SINKS PRESENT IN THE FLOW MODEL =    62

 MAXIMUM STEPSIZE WHICH MEETS STABILITY CRITERION OF THE SINK & SOURCE TERM
 =  261.4    (WHEN MIN. R.F.=1)  AT K=   2, I=   1, J= 120

 MAXIMUM STEPSIZE WHICH MEETS STABILITY CRITERION OF THE DISPERSION TERM
 =  20.29    (WHEN MIN. R.F.=1)  AT K=   1, I=   1, J=  31
     1 CALLS TO GCG PACKAGE FOR TRANSPORT TIME STEP   3 IN FLOW TIME STEP 262 STRESS PERIOD   1
     6 TOTAL ITERATIONS
 
 SOLVING FOR HEAD 
 FLOW MODEL IS TRANSIENT
 FLOW MODEL CONTAINS CONSTANT-HEAD CELLS


 MAXIMUM STEPSIZE DURING WHICH ANY PARTICLE CANNOT MOVE MORE THAN ONE CELL
 =  5.837    (WHEN MIN. R.F.=1)  AT K=   4, I=   1, J=  60

 MAXIMUM STEPSIZE WHICH MEETS STABILITY CRITERION OF THE ADVECTION TERM
 (FOR PURE FINITE-DIFFERENCE OPTION, MIXELM=0) 
 =  3.914    (WHEN MIN. R.F.=1)  AT K=   2, I=   1, J=  44


 TOTAL NUMBER OF POINT SOURCES/SINKS PRESENT IN THE FLOW MODEL =    62

 MAXIMUM STEPSIZE WHICH MEETS STABILITY CRITERION OF THE SINK & SOURCE TERM
 =  251.2    (WHEN MIN. R.F.=1)  AT K=   2, I=   1, J= 120

 MAXIMUM STEPSIZE WHICH MEETS STABILITY CRITERION OF THE DISPERSION TERM
 =  20.29    (WHEN MIN. R.F.=1)  AT K=   1, I=   1, J=  31
     1 CALLS TO GCG PACKAGE FOR TRANSPORT TIME STEP   4 IN FLOW TIME STEP 262 STRESS PERIOD   1
     5 TOTAL ITERATIONS
  MAXIMUM CONCENTRATION CHANGES FOR EACH ITERATION:
  MAX. CHANGE LAYER,ROW,COL MAX. CHANGE LAYER,ROW,COL MAX. CHANGE LAYER,ROW,COL MAX. CHANGE LAYER,ROW,COL MAX. CHANGE LAYER,ROW,COL
 ------------------------------------------------------------------------------------------------------------------------------------
   0.2124E-01 (  2,  1, 82)  0.4598E-03 (  3,  1, 77)  0.1976E-04 (  3,  1, 80)  0.5691E-06 (  4,  1, 80)  0.2045E-07 (  3,  1, 33)


                                          ================================================
                                                         FROM TIME =   2620.0     TO    2630.0    

 
 SOLVING FOR HEAD 
 FLOW MODEL IS TRANSIENT
 FLOW MODEL CONTAINS CONSTANT-HEAD CELLS


 MAXIMUM STEPSIZE DURING WHICH ANY PARTICLE CANNOT MOVE MORE THAN ONE CELL
 =  5.841    (WHEN MIN. R.F.=1)  AT K=   4, I=   1, J=  60

 MAXIMUM STEPSIZE WHICH MEETS STABILITY CRITERION OF THE ADVECTION TERM
 (FOR PURE FINITE-DIFFERENCE OPTION, MIXELM=0) 
 =  3.713    (WHEN MIN. R.F.=1)  AT K=   2, I=   1, J=  80


 TOTAL NUMBER OF POINT SOURCES/SINKS PRESENT IN THE FLOW MODEL =    62

 MAXIMUM STEPSIZE WHICH MEETS STABILITY CRITERION OF THE SINK & SOURCE TERM
 =  251.7    (WHEN MIN. R.F.=1)  AT K=   2, I=   1, J= 120

 MAXIMUM STEPSIZE WHICH MEETS STABILITY CRITERION OF THE DISPERSION TERM
 =  20.29    (WHEN MIN. R.F.=1)  AT K=   1, I=   1, J=  31


     1 CALLS TO GCG PACKAGE FOR TRANSPORT TIME STEP   1 IN FLOW TIME STEP 263 STRESS PERIOD   1
     6 TOTAL ITERATIONS

 NO OUTPUT CONTROL FOR STRESS PERIOD    1   TIME STEP 263
 
 SOLVING FOR HEAD 
 FLOW MODEL IS TRANSIENT
 FLOW MODEL CONTAINS CONSTANT-HEAD CELLS


 MAXIMUM STEPSIZE DURING WHICH ANY PARTICLE CANNOT MOVE MORE THAN ONE CELL
 =  5.842    (WHEN MIN. R.F.=1)  AT K=   4, I=   1, J=  60

 MAXIMUM STEPSIZE WHICH MEETS STABILITY CRITERION OF THE ADVECTION TERM
 (FOR PURE FINITE-DIFFERENCE OPTION, MIXELM=0) 
 =  3.521    (WHEN MIN. R.F.=1)  AT K=   2, I=   1, J=  80


 TOTAL NUMBER OF POINT SOURCES/SINKS PRESENT IN THE FLOW MODEL =    62

 MAXIMUM STEPSIZE WHICH MEETS STABILITY CRITERION OF THE SINK & SOURCE TERM
 =  241.9    (WHEN MIN. R.F.=1)  AT K=   2, I=   1, J= 120

 MAXIMUM STEPSIZE WHICH MEETS STABILITY CRITERION OF THE DISPERSION TERM
 =  20.29    (WHEN MIN. R.F.=1)  AT K=   1, I=   1, J=  31
     1 CALLS TO GCG PACKAGE FOR TRANSPORT TIME STEP   2 IN FLOW TIME STEP 263 STRESS PERIOD   1
     6 TOTAL ITERATIONS
 
 SOLVING FOR HEAD 
 FLOW MODEL IS TRANSIENT
 FLOW MODEL CONTAINS CONSTANT-HEAD CELLS


 MAXIMUM STEPSIZE DURING WHICH ANY PARTICLE CANNOT MOVE MORE THAN ONE CELL
 =  5.767    (WHEN MIN. R.F.=1)  AT K=   4, I=   1, J=  73

 MAXIMUM STEPSIZE WHICH MEETS STABILITY CRITERION OF THE ADVECTION TERM
 (FOR PURE FINITE-DIFFERENCE OPTION, MIXELM=0) 
 =  3.511    (WHEN MIN. R.F.=1)  AT K=   2, I=   1, J=  80


 TOTAL NUMBER OF POINT SOURCES/SINKS PRESENT IN THE FLOW MODEL =    62

 MAXIMUM STEPSIZE WHICH MEETS STABILITY CRITERION OF THE SINK & SOURCE TERM
 =  253.4    (WHEN MIN. R.F.=1)  AT K=   2, I=   1, J= 120

 MAXIMUM STEPSIZE WHICH MEETS STABILITY CRITERION OF THE DISPERSION TERM
 =  20.29    (WHEN MIN. R.F.=1)  AT K=   1, I=   1, J=  31
     1 CALLS TO GCG PACKAGE FOR TRANSPORT TIME STEP   3 IN FLOW TIME STEP 263 STRESS PERIOD   1
     6 TOTAL ITERATIONS
 
 SOLVING FOR HEAD 
 FLOW MODEL IS TRANSIENT
 FLOW MODEL CONTAINS CONSTANT-HEAD CELLS


 MAXIMUM STEPSIZE DURING WHICH ANY PARTICLE CANNOT MOVE MORE THAN ONE CELL
 =  5.681    (WHEN MIN. R.F.=1)  AT K=   4, I=   1, J=  73

 MAXIMUM STEPSIZE WHICH MEETS STABILITY CRITERION OF THE ADVECTION TERM
 (FOR PURE FINITE-DIFFERENCE OPTION, MIXELM=0) 
 =  3.715    (WHEN MIN. R.F.=1)  AT K=   2, I=   1, J=  80


 TOTAL NUMBER OF POINT SOURCES/SINKS PRESENT IN THE FLOW MODEL =    62

 MAXIMUM STEPSIZE WHICH MEETS STABILITY CRITERION OF THE SINK & SOURCE TERM
 =  261.4    (WHEN MIN. R.F.=1)  AT K=   2, I=   1, J= 120

 MAXIMUM STEPSIZE WHICH MEETS STABILITY CRITERION OF THE DISPERSION TERM
 =  20.29    (WHEN MIN. R.F.=1)  AT K=   1, I=   1, J=  31
     1 CALLS TO GCG PACKAGE FOR TRANSPORT TIME STEP   4 IN FLOW TIME STEP 263 STRESS PERIOD   1
     5 TOTAL ITERATIONS
  MAXIMUM CONCENTRATION CHANGES FOR EACH ITERATION:
  MAX. CHANGE LAYER,ROW,COL MAX. CHANGE LAYER,ROW,COL MAX. CHANGE LAYER,ROW,COL MAX. CHANGE LAYER,ROW,COL MAX. CHANGE LAYER,ROW,COL
 ------------------------------------------------------------------------------------------------------------------------------------
   0.2144E-01 (  2,  1, 81)  0.5311E-03 (  2,  1, 79)  0.2298E-04 (  3,  1, 79)  0.6600E-06 (  4,  1, 79)  0.2111E-07 (  4,  1, 78)


                                          ================================================
                                                         FROM TIME =   2630.0     TO    2640.0    

 
 SOLVING FOR HEAD 
 FLOW MODEL IS TRANSIENT
 FLOW MODEL CONTAINS CONSTANT-HEAD CELLS


 MAXIMUM STEPSIZE DURING WHICH ANY PARTICLE CANNOT MOVE MORE THAN ONE CELL
 =  5.630    (WHEN MIN. R.F.=1)  AT K=   4, I=   1, J=  73

 MAXIMUM STEPSIZE WHICH MEETS STABILITY CRITERION OF THE ADVECTION TERM
 (FOR PURE FINITE-DIFFERENCE OPTION, MIXELM=0) 
 =  3.813    (WHEN MIN. R.F.=1)  AT K=   2, I=   1, J=  79


 TOTAL NUMBER OF POINT SOURCES/SINKS PRESENT IN THE FLOW MODEL =    62

 MAXIMUM STEPSIZE WHICH MEETS STABILITY CRITERION OF THE SINK & SOURCE TERM
 =  272.2    (WHEN MIN. R.F.=1)  AT K=   2, I=   1, J= 120

 MAXIMUM STEPSIZE WHICH MEETS STABILITY CRITERION OF THE DISPERSION TERM
 =  20.29    (WHEN MIN. R.F.=1)  AT K=   1, I=   1, J=  31


     1 CALLS TO GCG PACKAGE FOR TRANSPORT TIME STEP   1 IN FLOW TIME STEP 264 STRESS PERIOD   1
     6 TOTAL ITERATIONS

 NO OUTPUT CONTROL FOR STRESS PERIOD    1   TIME STEP 264
 
 SOLVING FOR HEAD 
 FLOW MODEL IS TRANSIENT
 FLOW MODEL CONTAINS CONSTANT-HEAD CELLS


 MAXIMUM STEPSIZE DURING WHICH ANY PARTICLE CANNOT MOVE MORE THAN ONE CELL
 =  5.569    (WHEN MIN. R.F.=1)  AT K=   4, I=   1, J=  73

 MAXIMUM STEPSIZE WHICH MEETS STABILITY CRITERION OF THE ADVECTION TERM
 (FOR PURE FINITE-DIFFERENCE OPTION, MIXELM=0) 
 =  3.546    (WHEN MIN. R.F.=1)  AT K=   2, I=   1, J=  79


 TOTAL NUMBER OF POINT SOURCES/SINKS PRESENT IN THE FLOW MODEL =    62

 MAXIMUM STEPSIZE WHICH MEETS STABILITY CRITERION OF THE SINK & SOURCE TERM
 =  257.9    (WHEN MIN. R.F.=1)  AT K=   2, I=   1, J= 120

 MAXIMUM STEPSIZE WHICH MEETS STABILITY CRITERION OF THE DISPERSION TERM
 =  20.29    (WHEN MIN. R.F.=1)  AT K=   1, I=   1, J=  31
     1 CALLS TO GCG PACKAGE FOR TRANSPORT TIME STEP   2 IN FLOW TIME STEP 264 STRESS PERIOD   1
     6 TOTAL ITERATIONS
 
 SOLVING FOR HEAD 
 FLOW MODEL IS TRANSIENT
 FLOW MODEL CONTAINS CONSTANT-HEAD CELLS


 MAXIMUM STEPSIZE DURING WHICH ANY PARTICLE CANNOT MOVE MORE THAN ONE CELL
 =  5.527    (WHEN MIN. R.F.=1)  AT K=   4, I=   1, J=  73

 MAXIMUM STEPSIZE WHICH MEETS STABILITY CRITERION OF THE ADVECTION TERM
 (FOR PURE FINITE-DIFFERENCE OPTION, MIXELM=0) 
 =  3.442    (WHEN MIN. R.F.=1)  AT K=   2, I=   1, J=  79


 TOTAL NUMBER OF POINT SOURCES/SINKS PRESENT IN THE FLOW MODEL =    62

 MAXIMUM STEPSIZE WHICH MEETS STABILITY CRITERION OF THE SINK & SOURCE TERM
 =  257.5    (WHEN MIN. R.F.=1)  AT K=   2, I=   1, J= 120

 MAXIMUM STEPSIZE WHICH MEETS STABILITY CRITERION OF THE DISPERSION TERM
 =  20.29    (WHEN MIN. R.F.=1)  AT K=   1, I=   1, J=  31
     1 CALLS TO GCG PACKAGE FOR TRANSPORT TIME STEP   3 IN FLOW TIME STEP 264 STRESS PERIOD   1
     6 TOTAL ITERATIONS
 
 SOLVING FOR HEAD 
 FLOW MODEL IS TRANSIENT
 FLOW MODEL CONTAINS CONSTANT-HEAD CELLS


 MAXIMUM STEPSIZE DURING WHICH ANY PARTICLE CANNOT MOVE MORE THAN ONE CELL
 =  5.505    (WHEN MIN. R.F.=1)  AT K=   4, I=   1, J=  73

 MAXIMUM STEPSIZE WHICH MEETS STABILITY CRITERION OF THE ADVECTION TERM
 (FOR PURE FINITE-DIFFERENCE OPTION, MIXELM=0) 
 =  3.484    (WHEN MIN. R.F.=1)  AT K=   2, I=   1, J=  79


 TOTAL NUMBER OF POINT SOURCES/SINKS PRESENT IN THE FLOW MODEL =    62

 MAXIMUM STEPSIZE WHICH MEETS STABILITY CRITERION OF THE SINK & SOURCE TERM
 =  265.2    (WHEN MIN. R.F.=1)  AT K=   2, I=   1, J= 120

 MAXIMUM STEPSIZE WHICH MEETS STABILITY CRITERION OF THE DISPERSION TERM
 =  20.29    (WHEN MIN. R.F.=1)  AT K=   1, I=   1, J=  31
     1 CALLS TO GCG PACKAGE FOR TRANSPORT TIME STEP   4 IN FLOW TIME STEP 264 STRESS PERIOD   1
     5 TOTAL ITERATIONS
  MAXIMUM CONCENTRATION CHANGES FOR EACH ITERATION:
  MAX. CHANGE LAYER,ROW,COL MAX. CHANGE LAYER,ROW,COL MAX. CHANGE LAYER,ROW,COL MAX. CHANGE LAYER,ROW,COL MAX. CHANGE LAYER,ROW,COL
 ------------------------------------------------------------------------------------------------------------------------------------
   0.2266E-01 (  2,  1, 80)  0.5018E-03 (  2,  1, 80)  0.2452E-04 (  3,  1, 78)  0.9453E-06 (  3,  1, 76)  0.2867E-07 (  4,  1, 76)


                                          ================================================
                                                         FROM TIME =   2640.0     TO    2650.0    

 
 SOLVING FOR HEAD 
 FLOW MODEL IS TRANSIENT
 FLOW MODEL CONTAINS CONSTANT-HEAD CELLS


 MAXIMUM STEPSIZE DURING WHICH ANY PARTICLE CANNOT MOVE MORE THAN ONE CELL
 =  5.503    (WHEN MIN. R.F.=1)  AT K=   4, I=   1, J=  73

 MAXIMUM STEPSIZE WHICH MEETS STABILITY CRITERION OF THE ADVECTION TERM
 (FOR PURE FINITE-DIFFERENCE OPTION, MIXELM=0) 
 =  3.600    (WHEN MIN. R.F.=1)  AT K=   2, I=   1, J=  79


 TOTAL NUMBER OF POINT SOURCES/SINKS PRESENT IN THE FLOW MODEL =    62

 MAXIMUM STEPSIZE WHICH MEETS STABILITY CRITERION OF THE SINK & SOURCE TERM
 =  283.2    (WHEN MIN. R.F.=1)  AT K=   2, I=   1, J= 120

 MAXIMUM STEPSIZE WHICH MEETS STABILITY CRITERION OF THE DISPERSION TERM
 =  20.29    (WHEN MIN. R.F.=1)  AT K=   1, I=   1, J=  31


     1 CALLS TO GCG PACKAGE FOR TRANSPORT TIME STEP   1 IN FLOW TIME STEP 265 STRESS PERIOD   1
     6 TOTAL ITERATIONS

 NO OUTPUT CONTROL FOR STRESS PERIOD    1   TIME STEP 265
 
 SOLVING FOR HEAD 
 FLOW MODEL IS TRANSIENT
 FLOW MODEL CONTAINS CONSTANT-HEAD CELLS


 MAXIMUM STEPSIZE DURING WHICH ANY PARTICLE CANNOT MOVE MORE THAN ONE CELL
 =  5.515    (WHEN MIN. R.F.=1)  AT K=   4, I=   1, J=  73

 MAXIMUM STEPSIZE WHICH MEETS STABILITY CRITERION OF THE ADVECTION TERM
 (FOR PURE FINITE-DIFFERENCE OPTION, MIXELM=0) 
 =  3.954    (WHEN MIN. R.F.=1)  AT K=   2, I=   1, J=  79


 TOTAL NUMBER OF POINT SOURCES/SINKS PRESENT IN THE FLOW MODEL =    62

 MAXIMUM STEPSIZE WHICH MEETS STABILITY CRITERION OF THE SINK & SOURCE TERM
 =  283.2    (WHEN MIN. R.F.=1)  AT K=   2, I=   1, J= 120

 MAXIMUM STEPSIZE WHICH MEETS STABILITY CRITERION OF THE DISPERSION TERM
 =  20.29    (WHEN MIN. R.F.=1)  AT K=   1, I=   1, J=  31
     1 CALLS TO GCG PACKAGE FOR TRANSPORT TIME STEP   2 IN FLOW TIME STEP 265 STRESS PERIOD   1
     6 TOTAL ITERATIONS
 
 SOLVING FOR HEAD 
 FLOW MODEL IS TRANSIENT
 FLOW MODEL CONTAINS CONSTANT-HEAD CELLS


 MAXIMUM STEPSIZE DURING WHICH ANY PARTICLE CANNOT MOVE MORE THAN ONE CELL
 =  5.541    (WHEN MIN. R.F.=1)  AT K=   4, I=   1, J=  73

 MAXIMUM STEPSIZE WHICH MEETS STABILITY CRITERION OF THE ADVECTION TERM
 (FOR PURE FINITE-DIFFERENCE OPTION, MIXELM=0) 
 =  3.674    (WHEN MIN. R.F.=1)  AT K=   2, I=   1, J=  78


 TOTAL NUMBER OF POINT SOURCES/SINKS PRESENT IN THE FLOW MODEL =    62

 MAXIMUM STEPSIZE WHICH MEETS STABILITY CRITERION OF THE SINK & SOURCE TERM
 =  291.5    (WHEN MIN. R.F.=1)  AT K=   2, I=   1, J= 120

 MAXIMUM STEPSIZE WHICH MEETS STABILITY CRITERION OF THE DISPERSION TERM
 =  20.29    (WHEN MIN. R.F.=1)  AT K=   1, I=   1, J=  31
     1 CALLS TO GCG PACKAGE FOR TRANSPORT TIME STEP   3 IN FLOW TIME STEP 265 STRESS PERIOD   1
     6 TOTAL ITERATIONS
 
 SOLVING FOR HEAD 
 FLOW MODEL IS TRANSIENT
 FLOW MODEL CONTAINS CONSTANT-HEAD CELLS


 MAXIMUM STEPSIZE DURING WHICH ANY PARTICLE CANNOT MOVE MORE THAN ONE CELL
 =  5.587    (WHEN MIN. R.F.=1)  AT K=   4, I=   1, J=  73

 MAXIMUM STEPSIZE WHICH MEETS STABILITY CRITERION OF THE ADVECTION TERM
 (FOR PURE FINITE-DIFFERENCE OPTION, MIXELM=0) 
 =  3.539    (WHEN MIN. R.F.=1)  AT K=   2, I=   1, J=  78


 TOTAL NUMBER OF POINT SOURCES/SINKS PRESENT IN THE FLOW MODEL =    62

 MAXIMUM STEPSIZE WHICH MEETS STABILITY CRITERION OF THE SINK & SOURCE TERM
 =  290.6    (WHEN MIN. R.F.=1)  AT K=   2, I=   1, J= 120

 MAXIMUM STEPSIZE WHICH MEETS STABILITY CRITERION OF THE DISPERSION TERM
 =  20.29    (WHEN MIN. R.F.=1)  AT K=   1, I=   1, J=  31
     1 CALLS TO GCG PACKAGE FOR TRANSPORT TIME STEP   4 IN FLOW TIME STEP 265 STRESS PERIOD   1
     5 TOTAL ITERATIONS
  MAXIMUM CONCENTRATION CHANGES FOR EACH ITERATION:
  MAX. CHANGE LAYER,ROW,COL MAX. CHANGE LAYER,ROW,COL MAX. CHANGE LAYER,ROW,COL MAX. CHANGE LAYER,ROW,COL MAX. CHANGE LAYER,ROW,COL
 ------------------------------------------------------------------------------------------------------------------------------------
   0.2036E-01 (  2,  1, 79)  0.5861E-03 (  2,  1, 79)  0.1910E-04 (  2,  1, 80)  0.7232E-06 (  3,  1, 80)  0.2491E-07 (  3,  1, 81)


                                          ================================================
                                                         FROM TIME =   2650.0     TO    2660.0    

 
 SOLVING FOR HEAD 
 FLOW MODEL IS TRANSIENT
 FLOW MODEL CONTAINS CONSTANT-HEAD CELLS


 MAXIMUM STEPSIZE DURING WHICH ANY PARTICLE CANNOT MOVE MORE THAN ONE CELL
 =  5.611    (WHEN MIN. R.F.=1)  AT K=   5, I=   1, J=  73

 MAXIMUM STEPSIZE WHICH MEETS STABILITY CRITERION OF THE ADVECTION TERM
 (FOR PURE FINITE-DIFFERENCE OPTION, MIXELM=0) 
 =  3.544    (WHEN MIN. R.F.=1)  AT K=   2, I=   1, J=  78


 TOTAL NUMBER OF POINT SOURCES/SINKS PRESENT IN THE FLOW MODEL =    62

 MAXIMUM STEPSIZE WHICH MEETS STABILITY CRITERION OF THE SINK & SOURCE TERM
 =  302.1    (WHEN MIN. R.F.=1)  AT K=   2, I=   1, J= 120

 MAXIMUM STEPSIZE WHICH MEETS STABILITY CRITERION OF THE DISPERSION TERM
 =  20.29    (WHEN MIN. R.F.=1)  AT K=   1, I=   1, J=  31


     1 CALLS TO GCG PACKAGE FOR TRANSPORT TIME STEP   1 IN FLOW TIME STEP 266 STRESS PERIOD   1
     6 TOTAL ITERATIONS

 NO OUTPUT CONTROL FOR STRESS PERIOD    1   TIME STEP 266
 
 SOLVING FOR HEAD 
 FLOW MODEL IS TRANSIENT
 FLOW MODEL CONTAINS CONSTANT-HEAD CELLS


 MAXIMUM STEPSIZE DURING WHICH ANY PARTICLE CANNOT MOVE MORE THAN ONE CELL
 =  5.655    (WHEN MIN. R.F.=1)  AT K=   5, I=   1, J=  73

 MAXIMUM STEPSIZE WHICH MEETS STABILITY CRITERION OF THE ADVECTION TERM
 (FOR PURE FINITE-DIFFERENCE OPTION, MIXELM=0) 
 =  3.634    (WHEN MIN. R.F.=1)  AT K=   2, I=   1, J=  78


 TOTAL NUMBER OF POINT SOURCES/SINKS PRESENT IN THE FLOW MODEL =    62

 MAXIMUM STEPSIZE WHICH MEETS STABILITY CRITERION OF THE SINK & SOURCE TERM
 =  301.3    (WHEN MIN. R.F.=1)  AT K=   2, I=   1, J= 120

 MAXIMUM STEPSIZE WHICH MEETS STABILITY CRITERION OF THE DISPERSION TERM
 =  20.29    (WHEN MIN. R.F.=1)  AT K=   1, I=   1, J=  31
     1 CALLS TO GCG PACKAGE FOR TRANSPORT TIME STEP   2 IN FLOW TIME STEP 266 STRESS PERIOD   1
     6 TOTAL ITERATIONS
 
 SOLVING FOR HEAD 
 FLOW MODEL IS TRANSIENT
 FLOW MODEL CONTAINS CONSTANT-HEAD CELLS


 MAXIMUM STEPSIZE DURING WHICH ANY PARTICLE CANNOT MOVE MORE THAN ONE CELL
 =  5.718    (WHEN MIN. R.F.=1)  AT K=   5, I=   1, J=  73

 MAXIMUM STEPSIZE WHICH MEETS STABILITY CRITERION OF THE ADVECTION TERM
 (FOR PURE FINITE-DIFFERENCE OPTION, MIXELM=0) 
 =  3.892    (WHEN MIN. R.F.=1)  AT K=   2, I=   1, J=  78


 TOTAL NUMBER OF POINT SOURCES/SINKS PRESENT IN THE FLOW MODEL =    62

 MAXIMUM STEPSIZE WHICH MEETS STABILITY CRITERION OF THE SINK & SOURCE TERM
 =  311.7    (WHEN MIN. R.F.=1)  AT K=   2, I=   1, J= 120

 MAXIMUM STEPSIZE WHICH MEETS STABILITY CRITERION OF THE DISPERSION TERM
 =  20.29    (WHEN MIN. R.F.=1)  AT K=   1, I=   1, J=  31
     1 CALLS TO GCG PACKAGE FOR TRANSPORT TIME STEP   3 IN FLOW TIME STEP 266 STRESS PERIOD   1
     6 TOTAL ITERATIONS
 
 SOLVING FOR HEAD 
 FLOW MODEL IS TRANSIENT
 FLOW MODEL CONTAINS CONSTANT-HEAD CELLS


 MAXIMUM STEPSIZE DURING WHICH ANY PARTICLE CANNOT MOVE MORE THAN ONE CELL
 =  5.799    (WHEN MIN. R.F.=1)  AT K=   5, I=   1, J=  73

 MAXIMUM STEPSIZE WHICH MEETS STABILITY CRITERION OF THE ADVECTION TERM
 (FOR PURE FINITE-DIFFERENCE OPTION, MIXELM=0) 
 =  3.948    (WHEN MIN. R.F.=1)  AT K=   2, I=   1, J=  77


 TOTAL NUMBER OF POINT SOURCES/SINKS PRESENT IN THE FLOW MODEL =    62

 MAXIMUM STEPSIZE WHICH MEETS STABILITY CRITERION OF THE SINK & SOURCE TERM
 =  314.1    (WHEN MIN. R.F.=1)  AT K=   2, I=   1, J= 120

 MAXIMUM STEPSIZE WHICH MEETS STABILITY CRITERION OF THE DISPERSION TERM
 =  20.29    (WHEN MIN. R.F.=1)  AT K=   1, I=   1, J=  31
     1 CALLS TO GCG PACKAGE FOR TRANSPORT TIME STEP   4 IN FLOW TIME STEP 266 STRESS PERIOD   1
     5 TOTAL ITERATIONS
  MAXIMUM CONCENTRATION CHANGES FOR EACH ITERATION:
  MAX. CHANGE LAYER,ROW,COL MAX. CHANGE LAYER,ROW,COL MAX. CHANGE LAYER,ROW,COL MAX. CHANGE LAYER,ROW,COL MAX. CHANGE LAYER,ROW,COL
 ------------------------------------------------------------------------------------------------------------------------------------
   0.2379E-01 (  2,  1, 38)  0.8305E-03 (  2,  1, 77)  0.2900E-04 (  3,  1, 77)  0.1080E-05 (  3,  1, 44)  0.4888E-07 (  5,  1, 80)


                                          ================================================
                                                         FROM TIME =   2660.0     TO    2670.0    

 
 SOLVING FOR HEAD 
 FLOW MODEL IS TRANSIENT
 FLOW MODEL CONTAINS CONSTANT-HEAD CELLS


 MAXIMUM STEPSIZE DURING WHICH ANY PARTICLE CANNOT MOVE MORE THAN ONE CELL
 =  5.874    (WHEN MIN. R.F.=1)  AT K=   5, I=   1, J=  73

 MAXIMUM STEPSIZE WHICH MEETS STABILITY CRITERION OF THE ADVECTION TERM
 (FOR PURE FINITE-DIFFERENCE OPTION, MIXELM=0) 
 =  3.790    (WHEN MIN. R.F.=1)  AT K=   2, I=   1, J=  77


 TOTAL NUMBER OF POINT SOURCES/SINKS PRESENT IN THE FLOW MODEL =    62

 MAXIMUM STEPSIZE WHICH MEETS STABILITY CRITERION OF THE SINK & SOURCE TERM
 =  319.4    (WHEN MIN. R.F.=1)  AT K=   2, I=   1, J= 120

 MAXIMUM STEPSIZE WHICH MEETS STABILITY CRITERION OF THE DISPERSION TERM
 =  20.29    (WHEN MIN. R.F.=1)  AT K=   1, I=   1, J=  31


     1 CALLS TO GCG PACKAGE FOR TRANSPORT TIME STEP   1 IN FLOW TIME STEP 267 STRESS PERIOD   1
     6 TOTAL ITERATIONS

 NO OUTPUT CONTROL FOR STRESS PERIOD    1   TIME STEP 267
 
 SOLVING FOR HEAD 
 FLOW MODEL IS TRANSIENT
 FLOW MODEL CONTAINS CONSTANT-HEAD CELLS


 MAXIMUM STEPSIZE DURING WHICH ANY PARTICLE CANNOT MOVE MORE THAN ONE CELL
 =  5.891    (WHEN MIN. R.F.=1)  AT K=   4, I=   1, J=  60

 MAXIMUM STEPSIZE WHICH MEETS STABILITY CRITERION OF THE ADVECTION TERM
 (FOR PURE FINITE-DIFFERENCE OPTION, MIXELM=0) 
 =  3.676    (WHEN MIN. R.F.=1)  AT K=   2, I=   1, J=  77


 TOTAL NUMBER OF POINT SOURCES/SINKS PRESENT IN THE FLOW MODEL =    62

 MAXIMUM STEPSIZE WHICH MEETS STABILITY CRITERION OF THE SINK & SOURCE TERM
 =  312.9    (WHEN MIN. R.F.=1)  AT K=   2, I=   1, J= 120

 MAXIMUM STEPSIZE WHICH MEETS STABILITY CRITERION OF THE DISPERSION TERM
 =  20.29    (WHEN MIN. R.F.=1)  AT K=   1, I=   1, J=  31
     1 CALLS TO GCG PACKAGE FOR TRANSPORT TIME STEP   2 IN FLOW TIME STEP 267 STRESS PERIOD   1
     6 TOTAL ITERATIONS
 
 SOLVING FOR HEAD 
 FLOW MODEL IS TRANSIENT
 FLOW MODEL CONTAINS CONSTANT-HEAD CELLS


 MAXIMUM STEPSIZE DURING WHICH ANY PARTICLE CANNOT MOVE MORE THAN ONE CELL
 =  5.896    (WHEN MIN. R.F.=1)  AT K=   4, I=   1, J=  60

 MAXIMUM STEPSIZE WHICH MEETS STABILITY CRITERION OF THE ADVECTION TERM
 (FOR PURE FINITE-DIFFERENCE OPTION, MIXELM=0) 
 =  3.694    (WHEN MIN. R.F.=1)  AT K=   2, I=   1, J=  77


 TOTAL NUMBER OF POINT SOURCES/SINKS PRESENT IN THE FLOW MODEL =    62

 MAXIMUM STEPSIZE WHICH MEETS STABILITY CRITERION OF THE SINK & SOURCE TERM
 =  321.9    (WHEN MIN. R.F.=1)  AT K=   2, I=   1, J= 120

 MAXIMUM STEPSIZE WHICH MEETS STABILITY CRITERION OF THE DISPERSION TERM
 =  20.29    (WHEN MIN. R.F.=1)  AT K=   1, I=   1, J=  31
     1 CALLS TO GCG PACKAGE FOR TRANSPORT TIME STEP   3 IN FLOW TIME STEP 267 STRESS PERIOD   1
     6 TOTAL ITERATIONS
 
 SOLVING FOR HEAD 
 FLOW MODEL IS TRANSIENT
 FLOW MODEL CONTAINS CONSTANT-HEAD CELLS


 MAXIMUM STEPSIZE DURING WHICH ANY PARTICLE CANNOT MOVE MORE THAN ONE CELL
 =  5.903    (WHEN MIN. R.F.=1)  AT K=   4, I=   1, J=  60

 MAXIMUM STEPSIZE WHICH MEETS STABILITY CRITERION OF THE ADVECTION TERM
 (FOR PURE FINITE-DIFFERENCE OPTION, MIXELM=0) 
 =  3.827    (WHEN MIN. R.F.=1)  AT K=   2, I=   1, J=  77


 TOTAL NUMBER OF POINT SOURCES/SINKS PRESENT IN THE FLOW MODEL =    62

 MAXIMUM STEPSIZE WHICH MEETS STABILITY CRITERION OF THE SINK & SOURCE TERM
 =  324.1    (WHEN MIN. R.F.=1)  AT K=   2, I=   1, J= 120

 MAXIMUM STEPSIZE WHICH MEETS STABILITY CRITERION OF THE DISPERSION TERM
 =  20.29    (WHEN MIN. R.F.=1)  AT K=   1, I=   1, J=  31
     1 CALLS TO GCG PACKAGE FOR TRANSPORT TIME STEP   4 IN FLOW TIME STEP 267 STRESS PERIOD   1
     5 TOTAL ITERATIONS
  MAXIMUM CONCENTRATION CHANGES FOR EACH ITERATION:
  MAX. CHANGE LAYER,ROW,COL MAX. CHANGE LAYER,ROW,COL MAX. CHANGE LAYER,ROW,COL MAX. CHANGE LAYER,ROW,COL MAX. CHANGE LAYER,ROW,COL
 ------------------------------------------------------------------------------------------------------------------------------------
   0.1891E-01 (  2,  1, 78)  0.3704E-03 (  2,  1, 76)  0.1172E-04 (  3,  1, 76)  0.3891E-06 (  3,  1, 79)  0.1092E-07 (  3,  1, 73)


                                          ================================================
                                                         FROM TIME =   2670.0     TO    2680.0    

 
 SOLVING FOR HEAD 
 FLOW MODEL IS TRANSIENT
 FLOW MODEL CONTAINS CONSTANT-HEAD CELLS


 MAXIMUM STEPSIZE DURING WHICH ANY PARTICLE CANNOT MOVE MORE THAN ONE CELL
 =  5.905    (WHEN MIN. R.F.=1)  AT K=  28, I=   1, J=  54

 MAXIMUM STEPSIZE WHICH MEETS STABILITY CRITERION OF THE ADVECTION TERM
 (FOR PURE FINITE-DIFFERENCE OPTION, MIXELM=0) 
 =  3.975    (WHEN MIN. R.F.=1)  AT K=   2, I=   1, J=  77


 TOTAL NUMBER OF POINT SOURCES/SINKS PRESENT IN THE FLOW MODEL =    62

 MAXIMUM STEPSIZE WHICH MEETS STABILITY CRITERION OF THE SINK & SOURCE TERM
 =  333.8    (WHEN MIN. R.F.=1)  AT K=   2, I=   1, J= 120

 MAXIMUM STEPSIZE WHICH MEETS STABILITY CRITERION OF THE DISPERSION TERM
 =  20.29    (WHEN MIN. R.F.=1)  AT K=   1, I=   1, J=  31


     1 CALLS TO GCG PACKAGE FOR TRANSPORT TIME STEP   1 IN FLOW TIME STEP 268 STRESS PERIOD   1
     6 TOTAL ITERATIONS

 NO OUTPUT CONTROL FOR STRESS PERIOD    1   TIME STEP 268
 
 SOLVING FOR HEAD 
 FLOW MODEL IS TRANSIENT
 FLOW MODEL CONTAINS CONSTANT-HEAD CELLS


 MAXIMUM STEPSIZE DURING WHICH ANY PARTICLE CANNOT MOVE MORE THAN ONE CELL
 =  5.895    (WHEN MIN. R.F.=1)  AT K=  28, I=   1, J=  54

 MAXIMUM STEPSIZE WHICH MEETS STABILITY CRITERION OF THE ADVECTION TERM
 (FOR PURE FINITE-DIFFERENCE OPTION, MIXELM=0) 
 =  4.097    (WHEN MIN. R.F.=1)  AT K=   2, I=   1, J=  41


 TOTAL NUMBER OF POINT SOURCES/SINKS PRESENT IN THE FLOW MODEL =    62

 MAXIMUM STEPSIZE WHICH MEETS STABILITY CRITERION OF THE SINK & SOURCE TERM
 =  320.0    (WHEN MIN. R.F.=1)  AT K=   2, I=   1, J= 120

 MAXIMUM STEPSIZE WHICH MEETS STABILITY CRITERION OF THE DISPERSION TERM
 =  20.29    (WHEN MIN. R.F.=1)  AT K=   1, I=   1, J=  31
     1 CALLS TO GCG PACKAGE FOR TRANSPORT TIME STEP   2 IN FLOW TIME STEP 268 STRESS PERIOD   1
     6 TOTAL ITERATIONS
 
 SOLVING FOR HEAD 
 FLOW MODEL IS TRANSIENT
 FLOW MODEL CONTAINS CONSTANT-HEAD CELLS


 MAXIMUM STEPSIZE DURING WHICH ANY PARTICLE CANNOT MOVE MORE THAN ONE CELL
 =  5.647    (WHEN MIN. R.F.=1)  AT K=   4, I=   1, J=  48

 MAXIMUM STEPSIZE WHICH MEETS STABILITY CRITERION OF THE ADVECTION TERM
 (FOR PURE FINITE-DIFFERENCE OPTION, MIXELM=0) 
 =  3.795    (WHEN MIN. R.F.=1)  AT K=   2, I=   1, J=  41


 TOTAL NUMBER OF POINT SOURCES/SINKS PRESENT IN THE FLOW MODEL =    62

 MAXIMUM STEPSIZE WHICH MEETS STABILITY CRITERION OF THE SINK & SOURCE TERM
 =  323.6    (WHEN MIN. R.F.=1)  AT K=   2, I=   1, J= 120

 MAXIMUM STEPSIZE WHICH MEETS STABILITY CRITERION OF THE DISPERSION TERM
 =  20.29    (WHEN MIN. R.F.=1)  AT K=   1, I=   1, J=  31
     1 CALLS TO GCG PACKAGE FOR TRANSPORT TIME STEP   3 IN FLOW TIME STEP 268 STRESS PERIOD   1
     6 TOTAL ITERATIONS
 
 SOLVING FOR HEAD 
 FLOW MODEL IS TRANSIENT
 FLOW MODEL CONTAINS CONSTANT-HEAD CELLS


 MAXIMUM STEPSIZE DURING WHICH ANY PARTICLE CANNOT MOVE MORE THAN ONE CELL
 =  5.411    (WHEN MIN. R.F.=1)  AT K=   4, I=   1, J=  48

 MAXIMUM STEPSIZE WHICH MEETS STABILITY CRITERION OF THE ADVECTION TERM
 (FOR PURE FINITE-DIFFERENCE OPTION, MIXELM=0) 
 =  3.710    (WHEN MIN. R.F.=1)  AT K=   2, I=   1, J=  41


 TOTAL NUMBER OF POINT SOURCES/SINKS PRESENT IN THE FLOW MODEL =    62

 MAXIMUM STEPSIZE WHICH MEETS STABILITY CRITERION OF THE SINK & SOURCE TERM
 =  324.6    (WHEN MIN. R.F.=1)  AT K=   2, I=   1, J= 120

 MAXIMUM STEPSIZE WHICH MEETS STABILITY CRITERION OF THE DISPERSION TERM
 =  20.29    (WHEN MIN. R.F.=1)  AT K=   1, I=   1, J=  31
     1 CALLS TO GCG PACKAGE FOR TRANSPORT TIME STEP   4 IN FLOW TIME STEP 268 STRESS PERIOD   1
     5 TOTAL ITERATIONS
  MAXIMUM CONCENTRATION CHANGES FOR EACH ITERATION:
  MAX. CHANGE LAYER,ROW,COL MAX. CHANGE LAYER,ROW,COL MAX. CHANGE LAYER,ROW,COL MAX. CHANGE LAYER,ROW,COL MAX. CHANGE LAYER,ROW,COL
 ------------------------------------------------------------------------------------------------------------------------------------
   0.1188E-01 (  2,  1, 90)  0.2349E-03 (  2,  1, 76)  0.4773E-05 (  2,  1, 78)  0.1110E-06 (  3,  1, 77)  0.2607E-08 (  4,  1, 82)


                                          ================================================
                                                         FROM TIME =   2680.0     TO    2690.0    

 
 SOLVING FOR HEAD 
 FLOW MODEL IS TRANSIENT
 FLOW MODEL CONTAINS CONSTANT-HEAD CELLS


 MAXIMUM STEPSIZE DURING WHICH ANY PARTICLE CANNOT MOVE MORE THAN ONE CELL
 =  5.346    (WHEN MIN. R.F.=1)  AT K=   4, I=   1, J=  48

 MAXIMUM STEPSIZE WHICH MEETS STABILITY CRITERION OF THE ADVECTION TERM
 (FOR PURE FINITE-DIFFERENCE OPTION, MIXELM=0) 
 =  3.725    (WHEN MIN. R.F.=1)  AT K=   2, I=   1, J=  41


 TOTAL NUMBER OF POINT SOURCES/SINKS PRESENT IN THE FLOW MODEL =    62

 MAXIMUM STEPSIZE WHICH MEETS STABILITY CRITERION OF THE SINK & SOURCE TERM
 =  368.3    (WHEN MIN. R.F.=1)  AT K=   2, I=   1, J= 120

 MAXIMUM STEPSIZE WHICH MEETS STABILITY CRITERION OF THE DISPERSION TERM
 =  20.29    (WHEN MIN. R.F.=1)  AT K=   1, I=   1, J=  31


     1 CALLS TO GCG PACKAGE FOR TRANSPORT TIME STEP   1 IN FLOW TIME STEP 269 STRESS PERIOD   1
     6 TOTAL ITERATIONS

 NO OUTPUT CONTROL FOR STRESS PERIOD    1   TIME STEP 269
 
 SOLVING FOR HEAD 
 FLOW MODEL IS TRANSIENT
 FLOW MODEL CONTAINS CONSTANT-HEAD CELLS


 MAXIMUM STEPSIZE DURING WHICH ANY PARTICLE CANNOT MOVE MORE THAN ONE CELL
 =  5.224    (WHEN MIN. R.F.=1)  AT K=   4, I=   1, J=  48

 MAXIMUM STEPSIZE WHICH MEETS STABILITY CRITERION OF THE ADVECTION TERM
 (FOR PURE FINITE-DIFFERENCE OPTION, MIXELM=0) 
 =  3.881    (WHEN MIN. R.F.=1)  AT K=   2, I=   1, J=  41


 TOTAL NUMBER OF POINT SOURCES/SINKS PRESENT IN THE FLOW MODEL =    62

 MAXIMUM STEPSIZE WHICH MEETS STABILITY CRITERION OF THE SINK & SOURCE TERM
 =  345.8    (WHEN MIN. R.F.=1)  AT K=   2, I=   1, J= 120

 MAXIMUM STEPSIZE WHICH MEETS STABILITY CRITERION OF THE DISPERSION TERM
 =  20.29    (WHEN MIN. R.F.=1)  AT K=   1, I=   1, J=  31
     1 CALLS TO GCG PACKAGE FOR TRANSPORT TIME STEP   2 IN FLOW TIME STEP 269 STRESS PERIOD   1
     6 TOTAL ITERATIONS
 
 SOLVING FOR HEAD 
 FLOW MODEL IS TRANSIENT
 FLOW MODEL CONTAINS CONSTANT-HEAD CELLS


 MAXIMUM STEPSIZE DURING WHICH ANY PARTICLE CANNOT MOVE MORE THAN ONE CELL
 =  5.156    (WHEN MIN. R.F.=1)  AT K=   4, I=   1, J=  48

 MAXIMUM STEPSIZE WHICH MEETS STABILITY CRITERION OF THE ADVECTION TERM
 (FOR PURE FINITE-DIFFERENCE OPTION, MIXELM=0) 
 =  3.870    (WHEN MIN. R.F.=1)  AT K=   2, I=   1, J=  42


 TOTAL NUMBER OF POINT SOURCES/SINKS PRESENT IN THE FLOW MODEL =    62

 MAXIMUM STEPSIZE WHICH MEETS STABILITY CRITERION OF THE SINK & SOURCE TERM
 =  336.1    (WHEN MIN. R.F.=1)  AT K=   2, I=   1, J= 120

 MAXIMUM STEPSIZE WHICH MEETS STABILITY CRITERION OF THE DISPERSION TERM
 =  20.29    (WHEN MIN. R.F.=1)  AT K=   1, I=   1, J=  31
     1 CALLS TO GCG PACKAGE FOR TRANSPORT TIME STEP   3 IN FLOW TIME STEP 269 STRESS PERIOD   1
     6 TOTAL ITERATIONS
 
 SOLVING FOR HEAD 
 FLOW MODEL IS TRANSIENT
 FLOW MODEL CONTAINS CONSTANT-HEAD CELLS


 MAXIMUM STEPSIZE DURING WHICH ANY PARTICLE CANNOT MOVE MORE THAN ONE CELL
 =  5.141    (WHEN MIN. R.F.=1)  AT K=   4, I=   1, J=  48

 MAXIMUM STEPSIZE WHICH MEETS STABILITY CRITERION OF THE ADVECTION TERM
 (FOR PURE FINITE-DIFFERENCE OPTION, MIXELM=0) 
 =  3.674    (WHEN MIN. R.F.=1)  AT K=   2, I=   1, J=  42


 TOTAL NUMBER OF POINT SOURCES/SINKS PRESENT IN THE FLOW MODEL =    62

 MAXIMUM STEPSIZE WHICH MEETS STABILITY CRITERION OF THE SINK & SOURCE TERM
 =  331.0    (WHEN MIN. R.F.=1)  AT K=   2, I=   1, J= 120

 MAXIMUM STEPSIZE WHICH MEETS STABILITY CRITERION OF THE DISPERSION TERM
 =  20.29    (WHEN MIN. R.F.=1)  AT K=   1, I=   1, J=  31
     1 CALLS TO GCG PACKAGE FOR TRANSPORT TIME STEP   4 IN FLOW TIME STEP 269 STRESS PERIOD   1
     5 TOTAL ITERATIONS
  MAXIMUM CONCENTRATION CHANGES FOR EACH ITERATION:
  MAX. CHANGE LAYER,ROW,COL MAX. CHANGE LAYER,ROW,COL MAX. CHANGE LAYER,ROW,COL MAX. CHANGE LAYER,ROW,COL MAX. CHANGE LAYER,ROW,COL
 ------------------------------------------------------------------------------------------------------------------------------------
   0.1819E-01 (  2,  1, 77)  0.3595E-03 (  3,  1, 79)  0.1244E-04 (  3,  1, 43)  0.5221E-06 (  3,  1, 45)  0.1520E-07 (  4,  1, 45)


                                          ================================================
                                                         FROM TIME =   2690.0     TO    2700.0    

 
 SOLVING FOR HEAD 
 FLOW MODEL IS TRANSIENT
 FLOW MODEL CONTAINS CONSTANT-HEAD CELLS


 MAXIMUM STEPSIZE DURING WHICH ANY PARTICLE CANNOT MOVE MORE THAN ONE CELL
 =  5.153    (WHEN MIN. R.F.=1)  AT K=   4, I=   1, J=  48

 MAXIMUM STEPSIZE WHICH MEETS STABILITY CRITERION OF THE ADVECTION TERM
 (FOR PURE FINITE-DIFFERENCE OPTION, MIXELM=0) 
 =  3.645    (WHEN MIN. R.F.=1)  AT K=   2, I=   1, J=  42


 TOTAL NUMBER OF POINT SOURCES/SINKS PRESENT IN THE FLOW MODEL =    62

 MAXIMUM STEPSIZE WHICH MEETS STABILITY CRITERION OF THE SINK & SOURCE TERM
 =  345.0    (WHEN MIN. R.F.=1)  AT K=   2, I=   1, J= 120

 MAXIMUM STEPSIZE WHICH MEETS STABILITY CRITERION OF THE DISPERSION TERM
 =  20.29    (WHEN MIN. R.F.=1)  AT K=   1, I=   1, J=  31


     1 CALLS TO GCG PACKAGE FOR TRANSPORT TIME STEP   1 IN FLOW TIME STEP 270 STRESS PERIOD   1
     6 TOTAL ITERATIONS

 NO OUTPUT CONTROL FOR STRESS PERIOD    1   TIME STEP 270
 
 SOLVING FOR HEAD 
 FLOW MODEL IS TRANSIENT
 FLOW MODEL CONTAINS CONSTANT-HEAD CELLS


 MAXIMUM STEPSIZE DURING WHICH ANY PARTICLE CANNOT MOVE MORE THAN ONE CELL
 =  5.197    (WHEN MIN. R.F.=1)  AT K=   4, I=   1, J=  48

 MAXIMUM STEPSIZE WHICH MEETS STABILITY CRITERION OF THE ADVECTION TERM
 (FOR PURE FINITE-DIFFERENCE OPTION, MIXELM=0) 
 =  3.680    (WHEN MIN. R.F.=1)  AT K=   2, I=   1, J=  42


 TOTAL NUMBER OF POINT SOURCES/SINKS PRESENT IN THE FLOW MODEL =    62

 MAXIMUM STEPSIZE WHICH MEETS STABILITY CRITERION OF THE SINK & SOURCE TERM
 =  335.5    (WHEN MIN. R.F.=1)  AT K=   2, I=   1, J= 120

 MAXIMUM STEPSIZE WHICH MEETS STABILITY CRITERION OF THE DISPERSION TERM
 =  20.29    (WHEN MIN. R.F.=1)  AT K=   1, I=   1, J=  31
     1 CALLS TO GCG PACKAGE FOR TRANSPORT TIME STEP   2 IN FLOW TIME STEP 270 STRESS PERIOD   1
     6 TOTAL ITERATIONS
 
 SOLVING FOR HEAD 
 FLOW MODEL IS TRANSIENT
 FLOW MODEL CONTAINS CONSTANT-HEAD CELLS


 MAXIMUM STEPSIZE DURING WHICH ANY PARTICLE CANNOT MOVE MORE THAN ONE CELL
 =  5.262    (WHEN MIN. R.F.=1)  AT K=   5, I=   1, J=  48

 MAXIMUM STEPSIZE WHICH MEETS STABILITY CRITERION OF THE ADVECTION TERM
 (FOR PURE FINITE-DIFFERENCE OPTION, MIXELM=0) 
 =  3.858    (WHEN MIN. R.F.=1)  AT K=   2, I=   1, J=  42


 TOTAL NUMBER OF POINT SOURCES/SINKS PRESENT IN THE FLOW MODEL =    62

 MAXIMUM STEPSIZE WHICH MEETS STABILITY CRITERION OF THE SINK & SOURCE TERM
 =  346.9    (WHEN MIN. R.F.=1)  AT K=   2, I=   1, J= 120

 MAXIMUM STEPSIZE WHICH MEETS STABILITY CRITERION OF THE DISPERSION TERM
 =  20.29    (WHEN MIN. R.F.=1)  AT K=   1, I=   1, J=  31
     1 CALLS TO GCG PACKAGE FOR TRANSPORT TIME STEP   3 IN FLOW TIME STEP 270 STRESS PERIOD   1
     6 TOTAL ITERATIONS
 
 SOLVING FOR HEAD 
 FLOW MODEL IS TRANSIENT
 FLOW MODEL CONTAINS CONSTANT-HEAD CELLS


 MAXIMUM STEPSIZE DURING WHICH ANY PARTICLE CANNOT MOVE MORE THAN ONE CELL
 =  5.317    (WHEN MIN. R.F.=1)  AT K=   5, I=   1, J=  48

 MAXIMUM STEPSIZE WHICH MEETS STABILITY CRITERION OF THE ADVECTION TERM
 (FOR PURE FINITE-DIFFERENCE OPTION, MIXELM=0) 
 =  3.943    (WHEN MIN. R.F.=1)  AT K=   2, I=   1, J=  43


 TOTAL NUMBER OF POINT SOURCES/SINKS PRESENT IN THE FLOW MODEL =    62

 MAXIMUM STEPSIZE WHICH MEETS STABILITY CRITERION OF THE SINK & SOURCE TERM
 =  347.2    (WHEN MIN. R.F.=1)  AT K=   2, I=   1, J= 120

 MAXIMUM STEPSIZE WHICH MEETS STABILITY CRITERION OF THE DISPERSION TERM
 =  20.29    (WHEN MIN. R.F.=1)  AT K=   1, I=   1, J=  31
     1 CALLS TO GCG PACKAGE FOR TRANSPORT TIME STEP   4 IN FLOW TIME STEP 270 STRESS PERIOD   1
     5 TOTAL ITERATIONS
  MAXIMUM CONCENTRATION CHANGES FOR EACH ITERATION:
  MAX. CHANGE LAYER,ROW,COL MAX. CHANGE LAYER,ROW,COL MAX. CHANGE LAYER,ROW,COL MAX. CHANGE LAYER,ROW,COL MAX. CHANGE LAYER,ROW,COL
 ------------------------------------------------------------------------------------------------------------------------------------
   0.2189E-01 (  2,  1, 83)  0.5314E-03 (  3,  1, 78)  0.1811E-04 (  2,  1, 77)  0.8283E-06 (  3,  1, 46)  0.2387E-07 (  4,  1, 46)


                                          ================================================
                                                         FROM TIME =   2700.0     TO    2710.0    

 
 SOLVING FOR HEAD 
 FLOW MODEL IS TRANSIENT
 FLOW MODEL CONTAINS CONSTANT-HEAD CELLS


 MAXIMUM STEPSIZE DURING WHICH ANY PARTICLE CANNOT MOVE MORE THAN ONE CELL
 =  5.371    (WHEN MIN. R.F.=1)  AT K=   5, I=   1, J=  48

 MAXIMUM STEPSIZE WHICH MEETS STABILITY CRITERION OF THE ADVECTION TERM
 (FOR PURE FINITE-DIFFERENCE OPTION, MIXELM=0) 
 =  3.800    (WHEN MIN. R.F.=1)  AT K=   2, I=   1, J=  43


 TOTAL NUMBER OF POINT SOURCES/SINKS PRESENT IN THE FLOW MODEL =    62

 MAXIMUM STEPSIZE WHICH MEETS STABILITY CRITERION OF THE SINK & SOURCE TERM
 =  358.2    (WHEN MIN. R.F.=1)  AT K=   2, I=   1, J= 120

 MAXIMUM STEPSIZE WHICH MEETS STABILITY CRITERION OF THE DISPERSION TERM
 =  20.29    (WHEN MIN. R.F.=1)  AT K=   1, I=   1, J=  31


     1 CALLS TO GCG PACKAGE FOR TRANSPORT TIME STEP   1 IN FLOW TIME STEP 271 STRESS PERIOD   1
     6 TOTAL ITERATIONS

 NO OUTPUT CONTROL FOR STRESS PERIOD    1   TIME STEP 271
 
 SOLVING FOR HEAD 
 FLOW MODEL IS TRANSIENT
 FLOW MODEL CONTAINS CONSTANT-HEAD CELLS


 MAXIMUM STEPSIZE DURING WHICH ANY PARTICLE CANNOT MOVE MORE THAN ONE CELL
 =  5.484    (WHEN MIN. R.F.=1)  AT K=   5, I=   1, J=  48

 MAXIMUM STEPSIZE WHICH MEETS STABILITY CRITERION OF THE ADVECTION TERM
 (FOR PURE FINITE-DIFFERENCE OPTION, MIXELM=0) 
 =  3.685    (WHEN MIN. R.F.=1)  AT K=   2, I=   1, J=  43


 TOTAL NUMBER OF POINT SOURCES/SINKS PRESENT IN THE FLOW MODEL =    62

 MAXIMUM STEPSIZE WHICH MEETS STABILITY CRITERION OF THE SINK & SOURCE TERM
 =  347.2    (WHEN MIN. R.F.=1)  AT K=   2, I=   1, J= 120

 MAXIMUM STEPSIZE WHICH MEETS STABILITY CRITERION OF THE DISPERSION TERM
 =  20.29    (WHEN MIN. R.F.=1)  AT K=   1, I=   1, J=  31
     1 CALLS TO GCG PACKAGE FOR TRANSPORT TIME STEP   2 IN FLOW TIME STEP 271 STRESS PERIOD   1
     6 TOTAL ITERATIONS
 
 SOLVING FOR HEAD 
 FLOW MODEL IS TRANSIENT
 FLOW MODEL CONTAINS CONSTANT-HEAD CELLS


 MAXIMUM STEPSIZE DURING WHICH ANY PARTICLE CANNOT MOVE MORE THAN ONE CELL
 =  5.610    (WHEN MIN. R.F.=1)  AT K=   6, I=   1, J=  48

 MAXIMUM STEPSIZE WHICH MEETS STABILITY CRITERION OF THE ADVECTION TERM
 (FOR PURE FINITE-DIFFERENCE OPTION, MIXELM=0) 
 =  3.714    (WHEN MIN. R.F.=1)  AT K=   2, I=   1, J=  43


 TOTAL NUMBER OF POINT SOURCES/SINKS PRESENT IN THE FLOW MODEL =    62

 MAXIMUM STEPSIZE WHICH MEETS STABILITY CRITERION OF THE SINK & SOURCE TERM
 =  375.2    (WHEN MIN. R.F.=1)  AT K=   2, I=   1, J= 120

 MAXIMUM STEPSIZE WHICH MEETS STABILITY CRITERION OF THE DISPERSION TERM
 =  20.29    (WHEN MIN. R.F.=1)  AT K=   1, I=   1, J=  31
     1 CALLS TO GCG PACKAGE FOR TRANSPORT TIME STEP   3 IN FLOW TIME STEP 271 STRESS PERIOD   1
     6 TOTAL ITERATIONS
 
 SOLVING FOR HEAD 
 FLOW MODEL IS TRANSIENT
 FLOW MODEL CONTAINS CONSTANT-HEAD CELLS


 MAXIMUM STEPSIZE DURING WHICH ANY PARTICLE CANNOT MOVE MORE THAN ONE CELL
 =  5.709    (WHEN MIN. R.F.=1)  AT K=   6, I=   1, J=  48

 MAXIMUM STEPSIZE WHICH MEETS STABILITY CRITERION OF THE ADVECTION TERM
 (FOR PURE FINITE-DIFFERENCE OPTION, MIXELM=0) 
 =  3.867    (WHEN MIN. R.F.=1)  AT K=   2, I=   1, J=  43


 TOTAL NUMBER OF POINT SOURCES/SINKS PRESENT IN THE FLOW MODEL =    62

 MAXIMUM STEPSIZE WHICH MEETS STABILITY CRITERION OF THE SINK & SOURCE TERM
 =  371.1    (WHEN MIN. R.F.=1)  AT K=   2, I=   1, J= 120

 MAXIMUM STEPSIZE WHICH MEETS STABILITY CRITERION OF THE DISPERSION TERM
 =  20.29    (WHEN MIN. R.F.=1)  AT K=   1, I=   1, J=  31
     1 CALLS TO GCG PACKAGE FOR TRANSPORT TIME STEP   4 IN FLOW TIME STEP 271 STRESS PERIOD   1
     5 TOTAL ITERATIONS
  MAXIMUM CONCENTRATION CHANGES FOR EACH ITERATION:
  MAX. CHANGE LAYER,ROW,COL MAX. CHANGE LAYER,ROW,COL MAX. CHANGE LAYER,ROW,COL MAX. CHANGE LAYER,ROW,COL MAX. CHANGE LAYER,ROW,COL
 ------------------------------------------------------------------------------------------------------------------------------------
   0.1936E-01 (  2,  1, 82)  0.3462E-03 (  2,  1, 82)  0.1279E-04 (  3,  1, 80)  0.3934E-06 (  3,  1, 46)  0.9731E-08 (  3,  1, 33)


                                          ================================================
                                                         FROM TIME =   2710.0     TO    2720.0    

 
 SOLVING FOR HEAD 
 FLOW MODEL IS TRANSIENT
 FLOW MODEL CONTAINS CONSTANT-HEAD CELLS


 MAXIMUM STEPSIZE DURING WHICH ANY PARTICLE CANNOT MOVE MORE THAN ONE CELL
 =  5.772    (WHEN MIN. R.F.=1)  AT K=   6, I=   1, J=  48

 MAXIMUM STEPSIZE WHICH MEETS STABILITY CRITERION OF THE ADVECTION TERM
 (FOR PURE FINITE-DIFFERENCE OPTION, MIXELM=0) 
 =  4.016    (WHEN MIN. R.F.=1)  AT K=   2, I=   1, J=  80


 TOTAL NUMBER OF POINT SOURCES/SINKS PRESENT IN THE FLOW MODEL =    62

 MAXIMUM STEPSIZE WHICH MEETS STABILITY CRITERION OF THE SINK & SOURCE TERM
 =  372.2    (WHEN MIN. R.F.=1)  AT K=   2, I=   1, J= 120

 MAXIMUM STEPSIZE WHICH MEETS STABILITY CRITERION OF THE DISPERSION TERM
 =  20.29    (WHEN MIN. R.F.=1)  AT K=   1, I=   1, J=  31


     1 CALLS TO GCG PACKAGE FOR TRANSPORT TIME STEP   1 IN FLOW TIME STEP 272 STRESS PERIOD   1
     6 TOTAL ITERATIONS

 NO OUTPUT CONTROL FOR STRESS PERIOD    1   TIME STEP 272
 
 SOLVING FOR HEAD 
 FLOW MODEL IS TRANSIENT
 FLOW MODEL CONTAINS CONSTANT-HEAD CELLS


 MAXIMUM STEPSIZE DURING WHICH ANY PARTICLE CANNOT MOVE MORE THAN ONE CELL
 =  5.701    (WHEN MIN. R.F.=1)  AT K=   4, I=   1, J=  74

 MAXIMUM STEPSIZE WHICH MEETS STABILITY CRITERION OF THE ADVECTION TERM
 (FOR PURE FINITE-DIFFERENCE OPTION, MIXELM=0) 
 =  3.654    (WHEN MIN. R.F.=1)  AT K=   2, I=   1, J=  80


 TOTAL NUMBER OF POINT SOURCES/SINKS PRESENT IN THE FLOW MODEL =    62

 MAXIMUM STEPSIZE WHICH MEETS STABILITY CRITERION OF THE SINK & SOURCE TERM
 =  347.3    (WHEN MIN. R.F.=1)  AT K=   2, I=   1, J= 120

 MAXIMUM STEPSIZE WHICH MEETS STABILITY CRITERION OF THE DISPERSION TERM
 =  20.29    (WHEN MIN. R.F.=1)  AT K=   1, I=   1, J=  31
     1 CALLS TO GCG PACKAGE FOR TRANSPORT TIME STEP   2 IN FLOW TIME STEP 272 STRESS PERIOD   1
     6 TOTAL ITERATIONS
 
 SOLVING FOR HEAD 
 FLOW MODEL IS TRANSIENT
 FLOW MODEL CONTAINS CONSTANT-HEAD CELLS


 MAXIMUM STEPSIZE DURING WHICH ANY PARTICLE CANNOT MOVE MORE THAN ONE CELL
 =  5.589    (WHEN MIN. R.F.=1)  AT K=   4, I=   1, J=  74

 MAXIMUM STEPSIZE WHICH MEETS STABILITY CRITERION OF THE ADVECTION TERM
 (FOR PURE FINITE-DIFFERENCE OPTION, MIXELM=0) 
 =  3.507    (WHEN MIN. R.F.=1)  AT K=   2, I=   1, J=  80


 TOTAL NUMBER OF POINT SOURCES/SINKS PRESENT IN THE FLOW MODEL =    62

 MAXIMUM STEPSIZE WHICH MEETS STABILITY CRITERION OF THE SINK & SOURCE TERM
 =  362.0    (WHEN MIN. R.F.=1)  AT K=   2, I=   1, J= 120

 MAXIMUM STEPSIZE WHICH MEETS STABILITY CRITERION OF THE DISPERSION TERM
 =  20.29    (WHEN MIN. R.F.=1)  AT K=   1, I=   1, J=  31
     1 CALLS TO GCG PACKAGE FOR TRANSPORT TIME STEP   3 IN FLOW TIME STEP 272 STRESS PERIOD   1
     6 TOTAL ITERATIONS
 
 SOLVING FOR HEAD 
 FLOW MODEL IS TRANSIENT
 FLOW MODEL CONTAINS CONSTANT-HEAD CELLS


 MAXIMUM STEPSIZE DURING WHICH ANY PARTICLE CANNOT MOVE MORE THAN ONE CELL
 =  5.600    (WHEN MIN. R.F.=1)  AT K=   4, I=   1, J=  74

 MAXIMUM STEPSIZE WHICH MEETS STABILITY CRITERION OF THE ADVECTION TERM
 (FOR PURE FINITE-DIFFERENCE OPTION, MIXELM=0) 
 =  3.537    (WHEN MIN. R.F.=1)  AT K=   2, I=   1, J=  80


 TOTAL NUMBER OF POINT SOURCES/SINKS PRESENT IN THE FLOW MODEL =    62

 MAXIMUM STEPSIZE WHICH MEETS STABILITY CRITERION OF THE SINK & SOURCE TERM
 =  389.1    (WHEN MIN. R.F.=1)  AT K=   2, I=   1, J= 120

 MAXIMUM STEPSIZE WHICH MEETS STABILITY CRITERION OF THE DISPERSION TERM
 =  20.29    (WHEN MIN. R.F.=1)  AT K=   1, I=   1, J=  31
     1 CALLS TO GCG PACKAGE FOR TRANSPORT TIME STEP   4 IN FLOW TIME STEP 272 STRESS PERIOD   1
     5 TOTAL ITERATIONS
  MAXIMUM CONCENTRATION CHANGES FOR EACH ITERATION:
  MAX. CHANGE LAYER,ROW,COL MAX. CHANGE LAYER,ROW,COL MAX. CHANGE LAYER,ROW,COL MAX. CHANGE LAYER,ROW,COL MAX. CHANGE LAYER,ROW,COL
 ------------------------------------------------------------------------------------------------------------------------------------
   0.1767E-01 (  2,  1, 81)  0.3226E-03 (  2,  1, 79)  0.1361E-04 (  3,  1, 79)  0.3459E-06 (  4,  1, 79)  0.8480E-08 (  4,  1, 78)


                                          ================================================
                                                         FROM TIME =   2720.0     TO    2730.0    

 
 SOLVING FOR HEAD 
 FLOW MODEL IS TRANSIENT
 FLOW MODEL CONTAINS CONSTANT-HEAD CELLS


 MAXIMUM STEPSIZE DURING WHICH ANY PARTICLE CANNOT MOVE MORE THAN ONE CELL
 =  5.655    (WHEN MIN. R.F.=1)  AT K=   4, I=   1, J=  74

 MAXIMUM STEPSIZE WHICH MEETS STABILITY CRITERION OF THE ADVECTION TERM
 (FOR PURE FINITE-DIFFERENCE OPTION, MIXELM=0) 
 =  3.657    (WHEN MIN. R.F.=1)  AT K=   2, I=   1, J=  80


 TOTAL NUMBER OF POINT SOURCES/SINKS PRESENT IN THE FLOW MODEL =    62

 MAXIMUM STEPSIZE WHICH MEETS STABILITY CRITERION OF THE SINK & SOURCE TERM
 =  440.2    (WHEN MIN. R.F.=1)  AT K=   2, I=   1, J= 120

 MAXIMUM STEPSIZE WHICH MEETS STABILITY CRITERION OF THE DISPERSION TERM
 =  20.29    (WHEN MIN. R.F.=1)  AT K=   1, I=   1, J=  31


     1 CALLS TO GCG PACKAGE FOR TRANSPORT TIME STEP   1 IN FLOW TIME STEP 273 STRESS PERIOD   1
     6 TOTAL ITERATIONS

 NO OUTPUT CONTROL FOR STRESS PERIOD    1   TIME STEP 273
 
 SOLVING FOR HEAD 
 FLOW MODEL IS TRANSIENT
 FLOW MODEL CONTAINS CONSTANT-HEAD CELLS


 MAXIMUM STEPSIZE DURING WHICH ANY PARTICLE CANNOT MOVE MORE THAN ONE CELL
 =  5.725    (WHEN MIN. R.F.=1)  AT K=   5, I=   1, J=  74

 MAXIMUM STEPSIZE WHICH MEETS STABILITY CRITERION OF THE ADVECTION TERM
 (FOR PURE FINITE-DIFFERENCE OPTION, MIXELM=0) 
 =  3.782    (WHEN MIN. R.F.=1)  AT K=   2, I=   1, J=  79


 TOTAL NUMBER OF POINT SOURCES/SINKS PRESENT IN THE FLOW MODEL =    62

 MAXIMUM STEPSIZE WHICH MEETS STABILITY CRITERION OF THE SINK & SOURCE TERM
 =  410.6    (WHEN MIN. R.F.=1)  AT K=   2, I=   1, J= 120

 MAXIMUM STEPSIZE WHICH MEETS STABILITY CRITERION OF THE DISPERSION TERM
 =  20.29    (WHEN MIN. R.F.=1)  AT K=   1, I=   1, J=  31
     1 CALLS TO GCG PACKAGE FOR TRANSPORT TIME STEP   2 IN FLOW TIME STEP 273 STRESS PERIOD   1
     6 TOTAL ITERATIONS
 
 SOLVING FOR HEAD 
 FLOW MODEL IS TRANSIENT
 FLOW MODEL CONTAINS CONSTANT-HEAD CELLS


 MAXIMUM STEPSIZE DURING WHICH ANY PARTICLE CANNOT MOVE MORE THAN ONE CELL
 =  5.788    (WHEN MIN. R.F.=1)  AT K=   4, I=   1, J=  73

 MAXIMUM STEPSIZE WHICH MEETS STABILITY CRITERION OF THE ADVECTION TERM
 (FOR PURE FINITE-DIFFERENCE OPTION, MIXELM=0) 
 =  3.538    (WHEN MIN. R.F.=1)  AT K=   2, I=   1, J=  79


 TOTAL NUMBER OF POINT SOURCES/SINKS PRESENT IN THE FLOW MODEL =    62

 MAXIMUM STEPSIZE WHICH MEETS STABILITY CRITERION OF THE SINK & SOURCE TERM
 =  408.7    (WHEN MIN. R.F.=1)  AT K=   2, I=   1, J= 120

 MAXIMUM STEPSIZE WHICH MEETS STABILITY CRITERION OF THE DISPERSION TERM
 =  20.29    (WHEN MIN. R.F.=1)  AT K=   1, I=   1, J=  31
     1 CALLS TO GCG PACKAGE FOR TRANSPORT TIME STEP   3 IN FLOW TIME STEP 273 STRESS PERIOD   1
     6 TOTAL ITERATIONS
 
 SOLVING FOR HEAD 
 FLOW MODEL IS TRANSIENT
 FLOW MODEL CONTAINS CONSTANT-HEAD CELLS


 MAXIMUM STEPSIZE DURING WHICH ANY PARTICLE CANNOT MOVE MORE THAN ONE CELL
 =  5.753    (WHEN MIN. R.F.=1)  AT K=   4, I=   1, J=  73

 MAXIMUM STEPSIZE WHICH MEETS STABILITY CRITERION OF THE ADVECTION TERM
 (FOR PURE FINITE-DIFFERENCE OPTION, MIXELM=0) 
 =  3.452    (WHEN MIN. R.F.=1)  AT K=   2, I=   1, J=  79


 TOTAL NUMBER OF POINT SOURCES/SINKS PRESENT IN THE FLOW MODEL =    62

 MAXIMUM STEPSIZE WHICH MEETS STABILITY CRITERION OF THE SINK & SOURCE TERM
 =  412.3    (WHEN MIN. R.F.=1)  AT K=   2, I=   1, J= 120

 MAXIMUM STEPSIZE WHICH MEETS STABILITY CRITERION OF THE DISPERSION TERM
 =  20.29    (WHEN MIN. R.F.=1)  AT K=   1, I=   1, J=  31
     1 CALLS TO GCG PACKAGE FOR TRANSPORT TIME STEP   4 IN FLOW TIME STEP 273 STRESS PERIOD   1
     5 TOTAL ITERATIONS
  MAXIMUM CONCENTRATION CHANGES FOR EACH ITERATION:
  MAX. CHANGE LAYER,ROW,COL MAX. CHANGE LAYER,ROW,COL MAX. CHANGE LAYER,ROW,COL MAX. CHANGE LAYER,ROW,COL MAX. CHANGE LAYER,ROW,COL
 ------------------------------------------------------------------------------------------------------------------------------------
   0.2225E-01 (  2,  1, 80)  0.6198E-03 (  2,  1, 80)  0.2352E-04 (  3,  1, 78)  0.1337E-05 (  3,  1, 76)  0.4239E-07 (  4,  1, 76)


                                          ================================================
                                                         FROM TIME =   2730.0     TO    2740.0    

 
 SOLVING FOR HEAD 
 FLOW MODEL IS TRANSIENT
 FLOW MODEL CONTAINS CONSTANT-HEAD CELLS


 MAXIMUM STEPSIZE DURING WHICH ANY PARTICLE CANNOT MOVE MORE THAN ONE CELL
 =  5.740    (WHEN MIN. R.F.=1)  AT K=   4, I=   1, J=  73

 MAXIMUM STEPSIZE WHICH MEETS STABILITY CRITERION OF THE ADVECTION TERM
 (FOR PURE FINITE-DIFFERENCE OPTION, MIXELM=0) 
 =  3.482    (WHEN MIN. R.F.=1)  AT K=   2, I=   1, J=  79


 TOTAL NUMBER OF POINT SOURCES/SINKS PRESENT IN THE FLOW MODEL =    62

 MAXIMUM STEPSIZE WHICH MEETS STABILITY CRITERION OF THE SINK & SOURCE TERM
 =  455.7    (WHEN MIN. R.F.=1)  AT K=   2, I=   1, J= 120

 MAXIMUM STEPSIZE WHICH MEETS STABILITY CRITERION OF THE DISPERSION TERM
 =  20.29    (WHEN MIN. R.F.=1)  AT K=   1, I=   1, J=  31


     1 CALLS TO GCG PACKAGE FOR TRANSPORT TIME STEP   1 IN FLOW TIME STEP 274 STRESS PERIOD   1
     6 TOTAL ITERATIONS

 NO OUTPUT CONTROL FOR STRESS PERIOD    1   TIME STEP 274
 
 SOLVING FOR HEAD 
 FLOW MODEL IS TRANSIENT
 FLOW MODEL CONTAINS CONSTANT-HEAD CELLS


 MAXIMUM STEPSIZE DURING WHICH ANY PARTICLE CANNOT MOVE MORE THAN ONE CELL
 =  5.729    (WHEN MIN. R.F.=1)  AT K=   4, I=   1, J=  73

 MAXIMUM STEPSIZE WHICH MEETS STABILITY CRITERION OF THE ADVECTION TERM
 (FOR PURE FINITE-DIFFERENCE OPTION, MIXELM=0) 
 =  3.628    (WHEN MIN. R.F.=1)  AT K=   2, I=   1, J=  79


 TOTAL NUMBER OF POINT SOURCES/SINKS PRESENT IN THE FLOW MODEL =    62

 MAXIMUM STEPSIZE WHICH MEETS STABILITY CRITERION OF THE SINK & SOURCE TERM
 =  461.3    (WHEN MIN. R.F.=1)  AT K=   2, I=   1, J= 120

 MAXIMUM STEPSIZE WHICH MEETS STABILITY CRITERION OF THE DISPERSION TERM
 =  20.29    (WHEN MIN. R.F.=1)  AT K=   1, I=   1, J=  31
     1 CALLS TO GCG PACKAGE FOR TRANSPORT TIME STEP   2 IN FLOW TIME STEP 274 STRESS PERIOD   1
     6 TOTAL ITERATIONS
 
 SOLVING FOR HEAD 
 FLOW MODEL IS TRANSIENT
 FLOW MODEL CONTAINS CONSTANT-HEAD CELLS


 MAXIMUM STEPSIZE DURING WHICH ANY PARTICLE CANNOT MOVE MORE THAN ONE CELL
 =  5.731    (WHEN MIN. R.F.=1)  AT K=   4, I=   1, J=  73

 MAXIMUM STEPSIZE WHICH MEETS STABILITY CRITERION OF THE ADVECTION TERM
 (FOR PURE FINITE-DIFFERENCE OPTION, MIXELM=0) 
 =  3.977    (WHEN MIN. R.F.=1)  AT K=   2, I=   1, J=  78


 TOTAL NUMBER OF POINT SOURCES/SINKS PRESENT IN THE FLOW MODEL =    62

 MAXIMUM STEPSIZE WHICH MEETS STABILITY CRITERION OF THE SINK & SOURCE TERM
 =  489.9    (WHEN MIN. R.F.=1)  AT K=   2, I=   1, J= 120

 MAXIMUM STEPSIZE WHICH MEETS STABILITY CRITERION OF THE DISPERSION TERM
 =  20.29    (WHEN MIN. R.F.=1)  AT K=   1, I=   1, J=  31
     1 CALLS TO GCG PACKAGE FOR TRANSPORT TIME STEP   3 IN FLOW TIME STEP 274 STRESS PERIOD   1
     6 TOTAL ITERATIONS
 
 SOLVING FOR HEAD 
 FLOW MODEL IS TRANSIENT
 FLOW MODEL CONTAINS CONSTANT-HEAD CELLS


 MAXIMUM STEPSIZE DURING WHICH ANY PARTICLE CANNOT MOVE MORE THAN ONE CELL
 =  5.744    (WHEN MIN. R.F.=1)  AT K=   4, I=   1, J=  73

 MAXIMUM STEPSIZE WHICH MEETS STABILITY CRITERION OF THE ADVECTION TERM
 (FOR PURE FINITE-DIFFERENCE OPTION, MIXELM=0) 
 =  3.697    (WHEN MIN. R.F.=1)  AT K=   2, I=   1, J=  78


 TOTAL NUMBER OF POINT SOURCES/SINKS PRESENT IN THE FLOW MODEL =    62

 MAXIMUM STEPSIZE WHICH MEETS STABILITY CRITERION OF THE SINK & SOURCE TERM
 =  518.4    (WHEN MIN. R.F.=1)  AT K=   2, I=   1, J= 120

 MAXIMUM STEPSIZE WHICH MEETS STABILITY CRITERION OF THE DISPERSION TERM
 =  20.29    (WHEN MIN. R.F.=1)  AT K=   1, I=   1, J=  31
     1 CALLS TO GCG PACKAGE FOR TRANSPORT TIME STEP   4 IN FLOW TIME STEP 274 STRESS PERIOD   1
     5 TOTAL ITERATIONS
  MAXIMUM CONCENTRATION CHANGES FOR EACH ITERATION:
  MAX. CHANGE LAYER,ROW,COL MAX. CHANGE LAYER,ROW,COL MAX. CHANGE LAYER,ROW,COL MAX. CHANGE LAYER,ROW,COL MAX. CHANGE LAYER,ROW,COL
 ------------------------------------------------------------------------------------------------------------------------------------
   0.2336E-01 (  2,  1, 44)  0.8316E-03 (  2,  1, 78)  0.2737E-04 (  2,  1, 43)  0.1453E-05 (  3,  1, 43)  0.5706E-07 (  3,  1, 81)


                                          ================================================
                                                         FROM TIME =   2740.0     TO    2750.0    

 
 SOLVING FOR HEAD 
 FLOW MODEL IS TRANSIENT
 FLOW MODEL CONTAINS CONSTANT-HEAD CELLS


 MAXIMUM STEPSIZE DURING WHICH ANY PARTICLE CANNOT MOVE MORE THAN ONE CELL
 =  5.767    (WHEN MIN. R.F.=1)  AT K=   4, I=   1, J=  73

 MAXIMUM STEPSIZE WHICH MEETS STABILITY CRITERION OF THE ADVECTION TERM
 (FOR PURE FINITE-DIFFERENCE OPTION, MIXELM=0) 
 =  3.598    (WHEN MIN. R.F.=1)  AT K=   2, I=   1, J=  78


 TOTAL NUMBER OF POINT SOURCES/SINKS PRESENT IN THE FLOW MODEL =    62

 MAXIMUM STEPSIZE WHICH MEETS STABILITY CRITERION OF THE SINK & SOURCE TERM
 =  534.6    (WHEN MIN. R.F.=1)  AT K=   2, I=   1, J= 120

 MAXIMUM STEPSIZE WHICH MEETS STABILITY CRITERION OF THE DISPERSION TERM
 =  20.29    (WHEN MIN. R.F.=1)  AT K=   1, I=   1, J=  31


     1 CALLS TO GCG PACKAGE FOR TRANSPORT TIME STEP   1 IN FLOW TIME STEP 275 STRESS PERIOD   1
     6 TOTAL ITERATIONS

 NO OUTPUT CONTROL FOR STRESS PERIOD    1   TIME STEP 275
 
 SOLVING FOR HEAD 
 FLOW MODEL IS TRANSIENT
 FLOW MODEL CONTAINS CONSTANT-HEAD CELLS


 MAXIMUM STEPSIZE DURING WHICH ANY PARTICLE CANNOT MOVE MORE THAN ONE CELL
 =  5.810    (WHEN MIN. R.F.=1)  AT K=   4, I=   1, J=  73

 MAXIMUM STEPSIZE WHICH MEETS STABILITY CRITERION OF THE ADVECTION TERM
 (FOR PURE FINITE-DIFFERENCE OPTION, MIXELM=0) 
 =  3.577    (WHEN MIN. R.F.=1)  AT K=   2, I=   1, J=  78


 TOTAL NUMBER OF POINT SOURCES/SINKS PRESENT IN THE FLOW MODEL =    62

 MAXIMUM STEPSIZE WHICH MEETS STABILITY CRITERION OF THE SINK & SOURCE TERM
 =  520.8    (WHEN MIN. R.F.=1)  AT K=   2, I=   1, J= 120

 MAXIMUM STEPSIZE WHICH MEETS STABILITY CRITERION OF THE DISPERSION TERM
 =  20.29    (WHEN MIN. R.F.=1)  AT K=   1, I=   1, J=  31
     1 CALLS TO GCG PACKAGE FOR TRANSPORT TIME STEP   2 IN FLOW TIME STEP 275 STRESS PERIOD   1
     6 TOTAL ITERATIONS
 
 SOLVING FOR HEAD 
 FLOW MODEL IS TRANSIENT
 FLOW MODEL CONTAINS CONSTANT-HEAD CELLS


 MAXIMUM STEPSIZE DURING WHICH ANY PARTICLE CANNOT MOVE MORE THAN ONE CELL
 =  5.816    (WHEN MIN. R.F.=1)  AT K=  28, I=   1, J=  54

 MAXIMUM STEPSIZE WHICH MEETS STABILITY CRITERION OF THE ADVECTION TERM
 (FOR PURE FINITE-DIFFERENCE OPTION, MIXELM=0) 
 =  3.676    (WHEN MIN. R.F.=1)  AT K=   2, I=   1, J=  78


 TOTAL NUMBER OF POINT SOURCES/SINKS PRESENT IN THE FLOW MODEL =    62

 MAXIMUM STEPSIZE WHICH MEETS STABILITY CRITERION OF THE SINK & SOURCE TERM
 =  555.0    (WHEN MIN. R.F.=1)  AT K=   2, I=   1, J= 120

 MAXIMUM STEPSIZE WHICH MEETS STABILITY CRITERION OF THE DISPERSION TERM
 =  20.29    (WHEN MIN. R.F.=1)  AT K=   1, I=   1, J=  31
     1 CALLS TO GCG PACKAGE FOR TRANSPORT TIME STEP   3 IN FLOW TIME STEP 275 STRESS PERIOD   1
     6 TOTAL ITERATIONS
 
 SOLVING FOR HEAD 
 FLOW MODEL IS TRANSIENT
 FLOW MODEL CONTAINS CONSTANT-HEAD CELLS


 MAXIMUM STEPSIZE DURING WHICH ANY PARTICLE CANNOT MOVE MORE THAN ONE CELL
 =  5.814    (WHEN MIN. R.F.=1)  AT K=  28, I=   1, J=  54

 MAXIMUM STEPSIZE WHICH MEETS STABILITY CRITERION OF THE ADVECTION TERM
 (FOR PURE FINITE-DIFFERENCE OPTION, MIXELM=0) 
 =  3.952    (WHEN MIN. R.F.=1)  AT K=   2, I=   1, J=  78


 TOTAL NUMBER OF POINT SOURCES/SINKS PRESENT IN THE FLOW MODEL =    62

 MAXIMUM STEPSIZE WHICH MEETS STABILITY CRITERION OF THE SINK & SOURCE TERM
 =  566.1    (WHEN MIN. R.F.=1)  AT K=   2, I=   1, J= 120

 MAXIMUM STEPSIZE WHICH MEETS STABILITY CRITERION OF THE DISPERSION TERM
 =  20.29    (WHEN MIN. R.F.=1)  AT K=   1, I=   1, J=  31
     1 CALLS TO GCG PACKAGE FOR TRANSPORT TIME STEP   4 IN FLOW TIME STEP 275 STRESS PERIOD   1
     5 TOTAL ITERATIONS



 >>>>>>>>>>>>>>>>>>>>>>>>>>>>>>>>>>>>>>>>>>>>>>>>>>>>>>>FOR COMPONENT NO. 01<<<<<<<<<<<<<<<<<<<<<<<<<<<<<<<<<<<<<<<<<<<<<<<<<<<<<<<


                                            -------------------------------------------
                                                      TRANSPORT STEP NO.    4
                                            -------------------------------------------

 TOTAL ELAPSED TIME SINCE BEGINNING OF SIMULATION =   2749.700    D   
 .....................................................................

                     CUMULATIVE MASS BUDGETS AT END OF TRANSPORT STEP    4, TIME STEP  275, STRESS PERIOD    1
                     ------------------------------------------------------------------------------------------

                                                             IN                           OUT
                                                      ----------------             ----------------
                               CONSTANT CONCENTRATION:    1850864.                   -938937.6    
                                        CONSTANT HEAD:    0.000000                   -24.29952    
                               MASS STOR (FLOW MODEL):    198.2141                   -375.7939    
                                MASS STORAGE (SOLUTE):    2826102.                   -3737827.    
                            ---------------------------------------------------------------------------
                                              [TOTAL]:    4677164.     KG            -4677164.     KG  

                                                          NET (IN - OUT):   0.9570541E-03
                                                   DISCREPANCY (PERCENT):   0.2046227E-07
 
 SOLVING FOR HEAD 
 FLOW MODEL IS TRANSIENT
 FLOW MODEL CONTAINS CONSTANT-HEAD CELLS


 MAXIMUM STEPSIZE DURING WHICH ANY PARTICLE CANNOT MOVE MORE THAN ONE CELL
 =  5.818    (WHEN MIN. R.F.=1)  AT K=  28, I=   1, J=  54

 MAXIMUM STEPSIZE WHICH MEETS STABILITY CRITERION OF THE ADVECTION TERM
 (FOR PURE FINITE-DIFFERENCE OPTION, MIXELM=0) 
 =  4.091    (WHEN MIN. R.F.=1)  AT K=   2, I=   1, J=  77


 TOTAL NUMBER OF POINT SOURCES/SINKS PRESENT IN THE FLOW MODEL =    62

 MAXIMUM STEPSIZE WHICH MEETS STABILITY CRITERION OF THE SINK & SOURCE TERM
 =  571.9    (WHEN MIN. R.F.=1)  AT K=   2, I=   1, J= 120

 MAXIMUM STEPSIZE WHICH MEETS STABILITY CRITERION OF THE DISPERSION TERM
 =  20.29    (WHEN MIN. R.F.=1)  AT K=   1, I=   1, J=  31
     1 CALLS TO GCG PACKAGE FOR TRANSPORT TIME STEP   5 IN FLOW TIME STEP 275 STRESS PERIOD   1
     4 TOTAL ITERATIONS
  MAXIMUM CONCENTRATION CHANGES FOR EACH ITERATION:
  MAX. CHANGE LAYER,ROW,COL MAX. CHANGE LAYER,ROW,COL MAX. CHANGE LAYER,ROW,COL MAX. CHANGE LAYER,ROW,COL MAX. CHANGE LAYER,ROW,COL
 ------------------------------------------------------------------------------------------------------------------------------------
   0.3791E-02 (  2,  1, 79)  0.1934E-04 (  2,  1, 77)  0.1246E-06 (  3,  1, 77)  0.7558E-09 (  3,  1, 80)


                                          ================================================
                                                         FROM TIME =   2750.0     TO    2760.0    

 
 SOLVING FOR HEAD 
 FLOW MODEL IS TRANSIENT
 FLOW MODEL CONTAINS CONSTANT-HEAD CELLS


 MAXIMUM STEPSIZE DURING WHICH ANY PARTICLE CANNOT MOVE MORE THAN ONE CELL
 =  5.820    (WHEN MIN. R.F.=1)  AT K=  28, I=   1, J=  54

 MAXIMUM STEPSIZE WHICH MEETS STABILITY CRITERION OF THE ADVECTION TERM
 (FOR PURE FINITE-DIFFERENCE OPTION, MIXELM=0) 
 =  4.057    (WHEN MIN. R.F.=1)  AT K=   2, I=   1, J=  77


 TOTAL NUMBER OF POINT SOURCES/SINKS PRESENT IN THE FLOW MODEL =    62

 MAXIMUM STEPSIZE WHICH MEETS STABILITY CRITERION OF THE SINK & SOURCE TERM
 =  673.8    (WHEN MIN. R.F.=1)  AT K=   2, I=   1, J= 120

 MAXIMUM STEPSIZE WHICH MEETS STABILITY CRITERION OF THE DISPERSION TERM
 =  20.29    (WHEN MIN. R.F.=1)  AT K=   1, I=   1, J=  31


     1 CALLS TO GCG PACKAGE FOR TRANSPORT TIME STEP   1 IN FLOW TIME STEP 276 STRESS PERIOD   1
     6 TOTAL ITERATIONS

 NO OUTPUT CONTROL FOR STRESS PERIOD    1   TIME STEP 276
 
 SOLVING FOR HEAD 
 FLOW MODEL IS TRANSIENT
 FLOW MODEL CONTAINS CONSTANT-HEAD CELLS


 MAXIMUM STEPSIZE DURING WHICH ANY PARTICLE CANNOT MOVE MORE THAN ONE CELL
 =  5.815    (WHEN MIN. R.F.=1)  AT K=  28, I=   1, J=  54

 MAXIMUM STEPSIZE WHICH MEETS STABILITY CRITERION OF THE ADVECTION TERM
 (FOR PURE FINITE-DIFFERENCE OPTION, MIXELM=0) 
 =  3.779    (WHEN MIN. R.F.=1)  AT K=   2, I=   1, J=  77


 TOTAL NUMBER OF POINT SOURCES/SINKS PRESENT IN THE FLOW MODEL =    62

 MAXIMUM STEPSIZE WHICH MEETS STABILITY CRITERION OF THE SINK & SOURCE TERM
 =  581.4    (WHEN MIN. R.F.=1)  AT K=   2, I=   1, J= 120

 MAXIMUM STEPSIZE WHICH MEETS STABILITY CRITERION OF THE DISPERSION TERM
 =  20.29    (WHEN MIN. R.F.=1)  AT K=   1, I=   1, J=  31
     1 CALLS TO GCG PACKAGE FOR TRANSPORT TIME STEP   2 IN FLOW TIME STEP 276 STRESS PERIOD   1
     6 TOTAL ITERATIONS
 
 SOLVING FOR HEAD 
 FLOW MODEL IS TRANSIENT
 FLOW MODEL CONTAINS CONSTANT-HEAD CELLS


 MAXIMUM STEPSIZE DURING WHICH ANY PARTICLE CANNOT MOVE MORE THAN ONE CELL
 =  5.810    (WHEN MIN. R.F.=1)  AT K=  28, I=   1, J=  54

 MAXIMUM STEPSIZE WHICH MEETS STABILITY CRITERION OF THE ADVECTION TERM
 (FOR PURE FINITE-DIFFERENCE OPTION, MIXELM=0) 
 =  3.690    (WHEN MIN. R.F.=1)  AT K=   2, I=   1, J=  77


 TOTAL NUMBER OF POINT SOURCES/SINKS PRESENT IN THE FLOW MODEL =    62

 MAXIMUM STEPSIZE WHICH MEETS STABILITY CRITERION OF THE SINK & SOURCE TERM
 =  574.8    (WHEN MIN. R.F.=1)  AT K=   2, I=   1, J= 120

 MAXIMUM STEPSIZE WHICH MEETS STABILITY CRITERION OF THE DISPERSION TERM
 =  20.29    (WHEN MIN. R.F.=1)  AT K=   1, I=   1, J=  31
     1 CALLS TO GCG PACKAGE FOR TRANSPORT TIME STEP   3 IN FLOW TIME STEP 276 STRESS PERIOD   1
     6 TOTAL ITERATIONS
 
 SOLVING FOR HEAD 
 FLOW MODEL IS TRANSIENT
 FLOW MODEL CONTAINS CONSTANT-HEAD CELLS


 MAXIMUM STEPSIZE DURING WHICH ANY PARTICLE CANNOT MOVE MORE THAN ONE CELL
 =  5.808    (WHEN MIN. R.F.=1)  AT K=  28, I=   1, J=  54

 MAXIMUM STEPSIZE WHICH MEETS STABILITY CRITERION OF THE ADVECTION TERM
 (FOR PURE FINITE-DIFFERENCE OPTION, MIXELM=0) 
 =  3.730    (WHEN MIN. R.F.=1)  AT K=   2, I=   1, J=  77


 TOTAL NUMBER OF POINT SOURCES/SINKS PRESENT IN THE FLOW MODEL =    62

 MAXIMUM STEPSIZE WHICH MEETS STABILITY CRITERION OF THE SINK & SOURCE TERM
 =  580.7    (WHEN MIN. R.F.=1)  AT K=   2, I=   1, J= 120

 MAXIMUM STEPSIZE WHICH MEETS STABILITY CRITERION OF THE DISPERSION TERM
 =  20.29    (WHEN MIN. R.F.=1)  AT K=   1, I=   1, J=  31
     1 CALLS TO GCG PACKAGE FOR TRANSPORT TIME STEP   4 IN FLOW TIME STEP 276 STRESS PERIOD   1
     5 TOTAL ITERATIONS
  MAXIMUM CONCENTRATION CHANGES FOR EACH ITERATION:
  MAX. CHANGE LAYER,ROW,COL MAX. CHANGE LAYER,ROW,COL MAX. CHANGE LAYER,ROW,COL MAX. CHANGE LAYER,ROW,COL MAX. CHANGE LAYER,ROW,COL
 ------------------------------------------------------------------------------------------------------------------------------------
   0.1330E-01 (  2,  1, 78)  0.2254E-03 (  2,  1, 78)  0.4846E-05 (  2,  1, 79)  0.1188E-06 (  3,  1, 79)  0.2552E-08 (  3,  1, 73)


                                          ================================================
                                                         FROM TIME =   2760.0     TO    2770.0    

 
 SOLVING FOR HEAD 
 FLOW MODEL IS TRANSIENT
 FLOW MODEL CONTAINS CONSTANT-HEAD CELLS


 MAXIMUM STEPSIZE DURING WHICH ANY PARTICLE CANNOT MOVE MORE THAN ONE CELL
 =  5.813    (WHEN MIN. R.F.=1)  AT K=  28, I=   1, J=  54

 MAXIMUM STEPSIZE WHICH MEETS STABILITY CRITERION OF THE ADVECTION TERM
 (FOR PURE FINITE-DIFFERENCE OPTION, MIXELM=0) 
 =  3.783    (WHEN MIN. R.F.=1)  AT K=   2, I=   1, J=  77


 TOTAL NUMBER OF POINT SOURCES/SINKS PRESENT IN THE FLOW MODEL =    62

 MAXIMUM STEPSIZE WHICH MEETS STABILITY CRITERION OF THE SINK & SOURCE TERM
 =  646.0    (WHEN MIN. R.F.=1)  AT K=   2, I=   1, J= 120

 MAXIMUM STEPSIZE WHICH MEETS STABILITY CRITERION OF THE DISPERSION TERM
 =  20.29    (WHEN MIN. R.F.=1)  AT K=   1, I=   1, J=  31


     1 CALLS TO GCG PACKAGE FOR TRANSPORT TIME STEP   1 IN FLOW TIME STEP 277 STRESS PERIOD   1
     6 TOTAL ITERATIONS

 NO OUTPUT CONTROL FOR STRESS PERIOD    1   TIME STEP 277
 
 SOLVING FOR HEAD 
 FLOW MODEL IS TRANSIENT
 FLOW MODEL CONTAINS CONSTANT-HEAD CELLS


 MAXIMUM STEPSIZE DURING WHICH ANY PARTICLE CANNOT MOVE MORE THAN ONE CELL
 =  5.812    (WHEN MIN. R.F.=1)  AT K=  28, I=   1, J=  54

 MAXIMUM STEPSIZE WHICH MEETS STABILITY CRITERION OF THE ADVECTION TERM
 (FOR PURE FINITE-DIFFERENCE OPTION, MIXELM=0) 
 =  3.968    (WHEN MIN. R.F.=1)  AT K=   2, I=   1, J=  40


 TOTAL NUMBER OF POINT SOURCES/SINKS PRESENT IN THE FLOW MODEL =    62

 MAXIMUM STEPSIZE WHICH MEETS STABILITY CRITERION OF THE SINK & SOURCE TERM
 =  564.2    (WHEN MIN. R.F.=1)  AT K=   2, I=   1, J= 120

 MAXIMUM STEPSIZE WHICH MEETS STABILITY CRITERION OF THE DISPERSION TERM
 =  20.29    (WHEN MIN. R.F.=1)  AT K=   1, I=   1, J=  31
     1 CALLS TO GCG PACKAGE FOR TRANSPORT TIME STEP   2 IN FLOW TIME STEP 277 STRESS PERIOD   1
     6 TOTAL ITERATIONS
 
 SOLVING FOR HEAD 
 FLOW MODEL IS TRANSIENT
 FLOW MODEL CONTAINS CONSTANT-HEAD CELLS


 MAXIMUM STEPSIZE DURING WHICH ANY PARTICLE CANNOT MOVE MORE THAN ONE CELL
 =  5.811    (WHEN MIN. R.F.=1)  AT K=  28, I=   1, J=  54

 MAXIMUM STEPSIZE WHICH MEETS STABILITY CRITERION OF THE ADVECTION TERM
 (FOR PURE FINITE-DIFFERENCE OPTION, MIXELM=0) 
 =  4.120    (WHEN MIN. R.F.=1)  AT K=   2, I=   1, J=  40


 TOTAL NUMBER OF POINT SOURCES/SINKS PRESENT IN THE FLOW MODEL =    62

 MAXIMUM STEPSIZE WHICH MEETS STABILITY CRITERION OF THE SINK & SOURCE TERM
 =  548.5    (WHEN MIN. R.F.=1)  AT K=   2, I=   1, J= 120

 MAXIMUM STEPSIZE WHICH MEETS STABILITY CRITERION OF THE DISPERSION TERM
 =  20.29    (WHEN MIN. R.F.=1)  AT K=   1, I=   1, J=  31
     1 CALLS TO GCG PACKAGE FOR TRANSPORT TIME STEP   3 IN FLOW TIME STEP 277 STRESS PERIOD   1
     6 TOTAL ITERATIONS
 
 SOLVING FOR HEAD 
 FLOW MODEL IS TRANSIENT
 FLOW MODEL CONTAINS CONSTANT-HEAD CELLS


 MAXIMUM STEPSIZE DURING WHICH ANY PARTICLE CANNOT MOVE MORE THAN ONE CELL
 =  5.809    (WHEN MIN. R.F.=1)  AT K=  28, I=   1, J=  54

 MAXIMUM STEPSIZE WHICH MEETS STABILITY CRITERION OF THE ADVECTION TERM
 (FOR PURE FINITE-DIFFERENCE OPTION, MIXELM=0) 
 =  3.973    (WHEN MIN. R.F.=1)  AT K=   2, I=   1, J=  41


 TOTAL NUMBER OF POINT SOURCES/SINKS PRESENT IN THE FLOW MODEL =    62

 MAXIMUM STEPSIZE WHICH MEETS STABILITY CRITERION OF THE SINK & SOURCE TERM
 =  538.1    (WHEN MIN. R.F.=1)  AT K=   2, I=   1, J= 120

 MAXIMUM STEPSIZE WHICH MEETS STABILITY CRITERION OF THE DISPERSION TERM
 =  20.29    (WHEN MIN. R.F.=1)  AT K=   1, I=   1, J=  31
     1 CALLS TO GCG PACKAGE FOR TRANSPORT TIME STEP   4 IN FLOW TIME STEP 277 STRESS PERIOD   1
     5 TOTAL ITERATIONS
  MAXIMUM CONCENTRATION CHANGES FOR EACH ITERATION:
  MAX. CHANGE LAYER,ROW,COL MAX. CHANGE LAYER,ROW,COL MAX. CHANGE LAYER,ROW,COL MAX. CHANGE LAYER,ROW,COL MAX. CHANGE LAYER,ROW,COL
 ------------------------------------------------------------------------------------------------------------------------------------
   0.1576E-01 (  2,  1, 39)  0.4284E-03 (  2,  1, 76)  0.9672E-05 (  3,  1, 76)  0.2710E-06 (  3,  1, 76)  0.9839E-08 (  4,  1, 75)


                                          ================================================
                                                         FROM TIME =   2770.0     TO    2780.0    

 
 SOLVING FOR HEAD 
 FLOW MODEL IS TRANSIENT
 FLOW MODEL CONTAINS CONSTANT-HEAD CELLS


 MAXIMUM STEPSIZE DURING WHICH ANY PARTICLE CANNOT MOVE MORE THAN ONE CELL
 =  5.701    (WHEN MIN. R.F.=1)  AT K=   4, I=   1, J=  48

 MAXIMUM STEPSIZE WHICH MEETS STABILITY CRITERION OF THE ADVECTION TERM
 (FOR PURE FINITE-DIFFERENCE OPTION, MIXELM=0) 
 =  3.852    (WHEN MIN. R.F.=1)  AT K=   2, I=   1, J=  41


 TOTAL NUMBER OF POINT SOURCES/SINKS PRESENT IN THE FLOW MODEL =    62

 MAXIMUM STEPSIZE WHICH MEETS STABILITY CRITERION OF THE SINK & SOURCE TERM
 =  588.2    (WHEN MIN. R.F.=1)  AT K=   2, I=   1, J= 120

 MAXIMUM STEPSIZE WHICH MEETS STABILITY CRITERION OF THE DISPERSION TERM
 =  20.29    (WHEN MIN. R.F.=1)  AT K=   1, I=   1, J=  31


     1 CALLS TO GCG PACKAGE FOR TRANSPORT TIME STEP   1 IN FLOW TIME STEP 278 STRESS PERIOD   1
     6 TOTAL ITERATIONS

 NO OUTPUT CONTROL FOR STRESS PERIOD    1   TIME STEP 278
 
 SOLVING FOR HEAD 
 FLOW MODEL IS TRANSIENT
 FLOW MODEL CONTAINS CONSTANT-HEAD CELLS


 MAXIMUM STEPSIZE DURING WHICH ANY PARTICLE CANNOT MOVE MORE THAN ONE CELL
 =  5.478    (WHEN MIN. R.F.=1)  AT K=   4, I=   1, J=  48

 MAXIMUM STEPSIZE WHICH MEETS STABILITY CRITERION OF THE ADVECTION TERM
 (FOR PURE FINITE-DIFFERENCE OPTION, MIXELM=0) 
 =  3.725    (WHEN MIN. R.F.=1)  AT K=   2, I=   1, J=  41


 TOTAL NUMBER OF POINT SOURCES/SINKS PRESENT IN THE FLOW MODEL =    62

 MAXIMUM STEPSIZE WHICH MEETS STABILITY CRITERION OF THE SINK & SOURCE TERM
 =  539.4    (WHEN MIN. R.F.=1)  AT K=   2, I=   1, J= 120

 MAXIMUM STEPSIZE WHICH MEETS STABILITY CRITERION OF THE DISPERSION TERM
 =  20.29    (WHEN MIN. R.F.=1)  AT K=   1, I=   1, J=  31
     1 CALLS TO GCG PACKAGE FOR TRANSPORT TIME STEP   2 IN FLOW TIME STEP 278 STRESS PERIOD   1
     6 TOTAL ITERATIONS
 
 SOLVING FOR HEAD 
 FLOW MODEL IS TRANSIENT
 FLOW MODEL CONTAINS CONSTANT-HEAD CELLS


 MAXIMUM STEPSIZE DURING WHICH ANY PARTICLE CANNOT MOVE MORE THAN ONE CELL
 =  5.319    (WHEN MIN. R.F.=1)  AT K=   4, I=   1, J=  48

 MAXIMUM STEPSIZE WHICH MEETS STABILITY CRITERION OF THE ADVECTION TERM
 (FOR PURE FINITE-DIFFERENCE OPTION, MIXELM=0) 
 =  3.749    (WHEN MIN. R.F.=1)  AT K=   2, I=   1, J=  41


 TOTAL NUMBER OF POINT SOURCES/SINKS PRESENT IN THE FLOW MODEL =    62

 MAXIMUM STEPSIZE WHICH MEETS STABILITY CRITERION OF THE SINK & SOURCE TERM
 =  554.6    (WHEN MIN. R.F.=1)  AT K=   2, I=   1, J= 120

 MAXIMUM STEPSIZE WHICH MEETS STABILITY CRITERION OF THE DISPERSION TERM
 =  20.29    (WHEN MIN. R.F.=1)  AT K=   1, I=   1, J=  31
     1 CALLS TO GCG PACKAGE FOR TRANSPORT TIME STEP   3 IN FLOW TIME STEP 278 STRESS PERIOD   1
     6 TOTAL ITERATIONS
 
 SOLVING FOR HEAD 
 FLOW MODEL IS TRANSIENT
 FLOW MODEL CONTAINS CONSTANT-HEAD CELLS


 MAXIMUM STEPSIZE DURING WHICH ANY PARTICLE CANNOT MOVE MORE THAN ONE CELL
 =  5.218    (WHEN MIN. R.F.=1)  AT K=   4, I=   1, J=  48

 MAXIMUM STEPSIZE WHICH MEETS STABILITY CRITERION OF THE ADVECTION TERM
 (FOR PURE FINITE-DIFFERENCE OPTION, MIXELM=0) 
 =  3.967    (WHEN MIN. R.F.=1)  AT K=   2, I=   1, J=  41


 TOTAL NUMBER OF POINT SOURCES/SINKS PRESENT IN THE FLOW MODEL =    62

 MAXIMUM STEPSIZE WHICH MEETS STABILITY CRITERION OF THE SINK & SOURCE TERM
 =  531.2    (WHEN MIN. R.F.=1)  AT K=   2, I=   1, J= 120

 MAXIMUM STEPSIZE WHICH MEETS STABILITY CRITERION OF THE DISPERSION TERM
 =  20.29    (WHEN MIN. R.F.=1)  AT K=   1, I=   1, J=  31
     1 CALLS TO GCG PACKAGE FOR TRANSPORT TIME STEP   4 IN FLOW TIME STEP 278 STRESS PERIOD   1
     5 TOTAL ITERATIONS
  MAXIMUM CONCENTRATION CHANGES FOR EACH ITERATION:
  MAX. CHANGE LAYER,ROW,COL MAX. CHANGE LAYER,ROW,COL MAX. CHANGE LAYER,ROW,COL MAX. CHANGE LAYER,ROW,COL MAX. CHANGE LAYER,ROW,COL
 ------------------------------------------------------------------------------------------------------------------------------------
   0.1691E-01 (  2,  1, 77)  0.2935E-03 (  3,  1, 79)  0.1089E-04 (  3,  1, 42)  0.3248E-06 (  3,  1, 78)  0.6659E-08 (  4,  1, 43)


                                          ================================================
                                                         FROM TIME =   2780.0     TO    2790.0    

 
 SOLVING FOR HEAD 
 FLOW MODEL IS TRANSIENT
 FLOW MODEL CONTAINS CONSTANT-HEAD CELLS


 MAXIMUM STEPSIZE DURING WHICH ANY PARTICLE CANNOT MOVE MORE THAN ONE CELL
 =  5.187    (WHEN MIN. R.F.=1)  AT K=   4, I=   1, J=  48

 MAXIMUM STEPSIZE WHICH MEETS STABILITY CRITERION OF THE ADVECTION TERM
 (FOR PURE FINITE-DIFFERENCE OPTION, MIXELM=0) 
 =  3.994    (WHEN MIN. R.F.=1)  AT K=   2, I=   1, J=  42


 TOTAL NUMBER OF POINT SOURCES/SINKS PRESENT IN THE FLOW MODEL =    62

 MAXIMUM STEPSIZE WHICH MEETS STABILITY CRITERION OF THE SINK & SOURCE TERM
 =  542.6    (WHEN MIN. R.F.=1)  AT K=   2, I=   1, J= 120

 MAXIMUM STEPSIZE WHICH MEETS STABILITY CRITERION OF THE DISPERSION TERM
 =  20.29    (WHEN MIN. R.F.=1)  AT K=   1, I=   1, J=  31


     1 CALLS TO GCG PACKAGE FOR TRANSPORT TIME STEP   1 IN FLOW TIME STEP 279 STRESS PERIOD   1
     6 TOTAL ITERATIONS

 NO OUTPUT CONTROL FOR STRESS PERIOD    1   TIME STEP 279
 
 SOLVING FOR HEAD 
 FLOW MODEL IS TRANSIENT
 FLOW MODEL CONTAINS CONSTANT-HEAD CELLS


 MAXIMUM STEPSIZE DURING WHICH ANY PARTICLE CANNOT MOVE MORE THAN ONE CELL
 =  5.151    (WHEN MIN. R.F.=1)  AT K=   4, I=   1, J=  48

 MAXIMUM STEPSIZE WHICH MEETS STABILITY CRITERION OF THE ADVECTION TERM
 (FOR PURE FINITE-DIFFERENCE OPTION, MIXELM=0) 
 =  3.734    (WHEN MIN. R.F.=1)  AT K=   2, I=   1, J=  42


 TOTAL NUMBER OF POINT SOURCES/SINKS PRESENT IN THE FLOW MODEL =    62

 MAXIMUM STEPSIZE WHICH MEETS STABILITY CRITERION OF THE SINK & SOURCE TERM
 =  480.6    (WHEN MIN. R.F.=1)  AT K=   2, I=   1, J= 120

 MAXIMUM STEPSIZE WHICH MEETS STABILITY CRITERION OF THE DISPERSION TERM
 =  20.29    (WHEN MIN. R.F.=1)  AT K=   1, I=   1, J=  31
     1 CALLS TO GCG PACKAGE FOR TRANSPORT TIME STEP   2 IN FLOW TIME STEP 279 STRESS PERIOD   1
     6 TOTAL ITERATIONS
 
 SOLVING FOR HEAD 
 FLOW MODEL IS TRANSIENT
 FLOW MODEL CONTAINS CONSTANT-HEAD CELLS


 MAXIMUM STEPSIZE DURING WHICH ANY PARTICLE CANNOT MOVE MORE THAN ONE CELL
 =  5.155    (WHEN MIN. R.F.=1)  AT K=   4, I=   1, J=  48

 MAXIMUM STEPSIZE WHICH MEETS STABILITY CRITERION OF THE ADVECTION TERM
 (FOR PURE FINITE-DIFFERENCE OPTION, MIXELM=0) 
 =  3.666    (WHEN MIN. R.F.=1)  AT K=   2, I=   1, J=  42


 TOTAL NUMBER OF POINT SOURCES/SINKS PRESENT IN THE FLOW MODEL =    62

 MAXIMUM STEPSIZE WHICH MEETS STABILITY CRITERION OF THE SINK & SOURCE TERM
 =  482.9    (WHEN MIN. R.F.=1)  AT K=   2, I=   1, J= 120

 MAXIMUM STEPSIZE WHICH MEETS STABILITY CRITERION OF THE DISPERSION TERM
 =  20.29    (WHEN MIN. R.F.=1)  AT K=   1, I=   1, J=  31
     1 CALLS TO GCG PACKAGE FOR TRANSPORT TIME STEP   3 IN FLOW TIME STEP 279 STRESS PERIOD   1
     6 TOTAL ITERATIONS
 
 SOLVING FOR HEAD 
 FLOW MODEL IS TRANSIENT
 FLOW MODEL CONTAINS CONSTANT-HEAD CELLS


 MAXIMUM STEPSIZE DURING WHICH ANY PARTICLE CANNOT MOVE MORE THAN ONE CELL
 =  5.192    (WHEN MIN. R.F.=1)  AT K=   4, I=   1, J=  48

 MAXIMUM STEPSIZE WHICH MEETS STABILITY CRITERION OF THE ADVECTION TERM
 (FOR PURE FINITE-DIFFERENCE OPTION, MIXELM=0) 
 =  3.732    (WHEN MIN. R.F.=1)  AT K=   2, I=   1, J=  42


 TOTAL NUMBER OF POINT SOURCES/SINKS PRESENT IN THE FLOW MODEL =    62

 MAXIMUM STEPSIZE WHICH MEETS STABILITY CRITERION OF THE SINK & SOURCE TERM
 =  488.4    (WHEN MIN. R.F.=1)  AT K=   2, I=   1, J= 120

 MAXIMUM STEPSIZE WHICH MEETS STABILITY CRITERION OF THE DISPERSION TERM
 =  20.29    (WHEN MIN. R.F.=1)  AT K=   1, I=   1, J=  31
     1 CALLS TO GCG PACKAGE FOR TRANSPORT TIME STEP   4 IN FLOW TIME STEP 279 STRESS PERIOD   1
     5 TOTAL ITERATIONS
  MAXIMUM CONCENTRATION CHANGES FOR EACH ITERATION:
  MAX. CHANGE LAYER,ROW,COL MAX. CHANGE LAYER,ROW,COL MAX. CHANGE LAYER,ROW,COL MAX. CHANGE LAYER,ROW,COL MAX. CHANGE LAYER,ROW,COL
 ------------------------------------------------------------------------------------------------------------------------------------
   0.1599E-01 (  2,  1, 83)  0.2808E-03 (  2,  1, 83)  0.8329E-05 (  3,  1, 43)  0.2029E-06 (  3,  1, 45)  0.4668E-08 (  5,  1, 43)


                                          ================================================
                                                         FROM TIME =   2790.0     TO    2800.0    

 
 SOLVING FOR HEAD 
 FLOW MODEL IS TRANSIENT
 FLOW MODEL CONTAINS CONSTANT-HEAD CELLS


 MAXIMUM STEPSIZE DURING WHICH ANY PARTICLE CANNOT MOVE MORE THAN ONE CELL
 =  5.224    (WHEN MIN. R.F.=1)  AT K=   4, I=   1, J=  48

 MAXIMUM STEPSIZE WHICH MEETS STABILITY CRITERION OF THE ADVECTION TERM
 (FOR PURE FINITE-DIFFERENCE OPTION, MIXELM=0) 
 =  3.820    (WHEN MIN. R.F.=1)  AT K=   2, I=   1, J=  42


 TOTAL NUMBER OF POINT SOURCES/SINKS PRESENT IN THE FLOW MODEL =    62

 MAXIMUM STEPSIZE WHICH MEETS STABILITY CRITERION OF THE SINK & SOURCE TERM
 =  528.1    (WHEN MIN. R.F.=1)  AT K=   2, I=   1, J= 120

 MAXIMUM STEPSIZE WHICH MEETS STABILITY CRITERION OF THE DISPERSION TERM
 =  20.29    (WHEN MIN. R.F.=1)  AT K=   1, I=   1, J=  31


     1 CALLS TO GCG PACKAGE FOR TRANSPORT TIME STEP   1 IN FLOW TIME STEP 280 STRESS PERIOD   1
     6 TOTAL ITERATIONS

 NO OUTPUT CONTROL FOR STRESS PERIOD    1   TIME STEP 280
 
 SOLVING FOR HEAD 
 FLOW MODEL IS TRANSIENT
 FLOW MODEL CONTAINS CONSTANT-HEAD CELLS


 MAXIMUM STEPSIZE DURING WHICH ANY PARTICLE CANNOT MOVE MORE THAN ONE CELL
 =  5.287    (WHEN MIN. R.F.=1)  AT K=   5, I=   1, J=  48

 MAXIMUM STEPSIZE WHICH MEETS STABILITY CRITERION OF THE ADVECTION TERM
 (FOR PURE FINITE-DIFFERENCE OPTION, MIXELM=0) 
 =  4.046    (WHEN MIN. R.F.=1)  AT K=   2, I=   1, J=  43


 TOTAL NUMBER OF POINT SOURCES/SINKS PRESENT IN THE FLOW MODEL =    62

 MAXIMUM STEPSIZE WHICH MEETS STABILITY CRITERION OF THE SINK & SOURCE TERM
 =  470.0    (WHEN MIN. R.F.=1)  AT K=   2, I=   1, J= 120

 MAXIMUM STEPSIZE WHICH MEETS STABILITY CRITERION OF THE DISPERSION TERM
 =  20.29    (WHEN MIN. R.F.=1)  AT K=   1, I=   1, J=  31
     1 CALLS TO GCG PACKAGE FOR TRANSPORT TIME STEP   2 IN FLOW TIME STEP 280 STRESS PERIOD   1
     6 TOTAL ITERATIONS
 
 SOLVING FOR HEAD 
 FLOW MODEL IS TRANSIENT
 FLOW MODEL CONTAINS CONSTANT-HEAD CELLS


 MAXIMUM STEPSIZE DURING WHICH ANY PARTICLE CANNOT MOVE MORE THAN ONE CELL
 =  5.348    (WHEN MIN. R.F.=1)  AT K=   5, I=   1, J=  48

 MAXIMUM STEPSIZE WHICH MEETS STABILITY CRITERION OF THE ADVECTION TERM
 (FOR PURE FINITE-DIFFERENCE OPTION, MIXELM=0) 
 =  3.788    (WHEN MIN. R.F.=1)  AT K=   2, I=   1, J=  43


 TOTAL NUMBER OF POINT SOURCES/SINKS PRESENT IN THE FLOW MODEL =    62

 MAXIMUM STEPSIZE WHICH MEETS STABILITY CRITERION OF THE SINK & SOURCE TERM
 =  474.8    (WHEN MIN. R.F.=1)  AT K=   2, I=   1, J= 120

 MAXIMUM STEPSIZE WHICH MEETS STABILITY CRITERION OF THE DISPERSION TERM
 =  20.29    (WHEN MIN. R.F.=1)  AT K=   1, I=   1, J=  31
     1 CALLS TO GCG PACKAGE FOR TRANSPORT TIME STEP   3 IN FLOW TIME STEP 280 STRESS PERIOD   1
     6 TOTAL ITERATIONS
 
 SOLVING FOR HEAD 
 FLOW MODEL IS TRANSIENT
 FLOW MODEL CONTAINS CONSTANT-HEAD CELLS


 MAXIMUM STEPSIZE DURING WHICH ANY PARTICLE CANNOT MOVE MORE THAN ONE CELL
 =  5.438    (WHEN MIN. R.F.=1)  AT K=   5, I=   1, J=  48

 MAXIMUM STEPSIZE WHICH MEETS STABILITY CRITERION OF THE ADVECTION TERM
 (FOR PURE FINITE-DIFFERENCE OPTION, MIXELM=0) 
 =  3.699    (WHEN MIN. R.F.=1)  AT K=   2, I=   1, J=  43


 TOTAL NUMBER OF POINT SOURCES/SINKS PRESENT IN THE FLOW MODEL =    62

 MAXIMUM STEPSIZE WHICH MEETS STABILITY CRITERION OF THE SINK & SOURCE TERM
 =  489.8    (WHEN MIN. R.F.=1)  AT K=   2, I=   1, J= 120

 MAXIMUM STEPSIZE WHICH MEETS STABILITY CRITERION OF THE DISPERSION TERM
 =  20.29    (WHEN MIN. R.F.=1)  AT K=   1, I=   1, J=  31
     1 CALLS TO GCG PACKAGE FOR TRANSPORT TIME STEP   4 IN FLOW TIME STEP 280 STRESS PERIOD   1
     5 TOTAL ITERATIONS
  MAXIMUM CONCENTRATION CHANGES FOR EACH ITERATION:
  MAX. CHANGE LAYER,ROW,COL MAX. CHANGE LAYER,ROW,COL MAX. CHANGE LAYER,ROW,COL MAX. CHANGE LAYER,ROW,COL MAX. CHANGE LAYER,ROW,COL
 ------------------------------------------------------------------------------------------------------------------------------------
   0.1736E-01 (  2,  1, 82)  0.3896E-03 (  2,  1, 82)  0.1017E-04 (  2,  1, 83)  0.3106E-06 (  3,  1, 46)  0.6465E-08 (  4,  1, 83)


                                          ================================================
                                                         FROM TIME =   2800.0     TO    2810.0    

 
 SOLVING FOR HEAD 
 FLOW MODEL IS TRANSIENT
 FLOW MODEL CONTAINS CONSTANT-HEAD CELLS


 MAXIMUM STEPSIZE DURING WHICH ANY PARTICLE CANNOT MOVE MORE THAN ONE CELL
 =  5.490    (WHEN MIN. R.F.=1)  AT K=   5, I=   1, J=  48

 MAXIMUM STEPSIZE WHICH MEETS STABILITY CRITERION OF THE ADVECTION TERM
 (FOR PURE FINITE-DIFFERENCE OPTION, MIXELM=0) 
 =  3.708    (WHEN MIN. R.F.=1)  AT K=   2, I=   1, J=  43


 TOTAL NUMBER OF POINT SOURCES/SINKS PRESENT IN THE FLOW MODEL =    62

 MAXIMUM STEPSIZE WHICH MEETS STABILITY CRITERION OF THE SINK & SOURCE TERM
 =  529.3    (WHEN MIN. R.F.=1)  AT K=   2, I=   1, J= 120

 MAXIMUM STEPSIZE WHICH MEETS STABILITY CRITERION OF THE DISPERSION TERM
 =  20.29    (WHEN MIN. R.F.=1)  AT K=   1, I=   1, J=  31


     1 CALLS TO GCG PACKAGE FOR TRANSPORT TIME STEP   1 IN FLOW TIME STEP 281 STRESS PERIOD   1
     6 TOTAL ITERATIONS

 NO OUTPUT CONTROL FOR STRESS PERIOD    1   TIME STEP 281
 
 SOLVING FOR HEAD 
 FLOW MODEL IS TRANSIENT
 FLOW MODEL CONTAINS CONSTANT-HEAD CELLS


 MAXIMUM STEPSIZE DURING WHICH ANY PARTICLE CANNOT MOVE MORE THAN ONE CELL
 =  5.609    (WHEN MIN. R.F.=1)  AT K=   5, I=   1, J=  48

 MAXIMUM STEPSIZE WHICH MEETS STABILITY CRITERION OF THE ADVECTION TERM
 (FOR PURE FINITE-DIFFERENCE OPTION, MIXELM=0) 
 =  3.798    (WHEN MIN. R.F.=1)  AT K=   2, I=   1, J=  43


 TOTAL NUMBER OF POINT SOURCES/SINKS PRESENT IN THE FLOW MODEL =    62

 MAXIMUM STEPSIZE WHICH MEETS STABILITY CRITERION OF THE SINK & SOURCE TERM
 =  479.3    (WHEN MIN. R.F.=1)  AT K=   2, I=   1, J= 120

 MAXIMUM STEPSIZE WHICH MEETS STABILITY CRITERION OF THE DISPERSION TERM
 =  20.29    (WHEN MIN. R.F.=1)  AT K=   1, I=   1, J=  31
     1 CALLS TO GCG PACKAGE FOR TRANSPORT TIME STEP   2 IN FLOW TIME STEP 281 STRESS PERIOD   1
     6 TOTAL ITERATIONS
 
 SOLVING FOR HEAD 
 FLOW MODEL IS TRANSIENT
 FLOW MODEL CONTAINS CONSTANT-HEAD CELLS


 MAXIMUM STEPSIZE DURING WHICH ANY PARTICLE CANNOT MOVE MORE THAN ONE CELL
 =  5.534    (WHEN MIN. R.F.=1)  AT K=   4, I=   1, J=  74

 MAXIMUM STEPSIZE WHICH MEETS STABILITY CRITERION OF THE ADVECTION TERM
 (FOR PURE FINITE-DIFFERENCE OPTION, MIXELM=0) 
 =  3.670    (WHEN MIN. R.F.=1)  AT K=   2, I=   1, J=  80


 TOTAL NUMBER OF POINT SOURCES/SINKS PRESENT IN THE FLOW MODEL =    62

 MAXIMUM STEPSIZE WHICH MEETS STABILITY CRITERION OF THE SINK & SOURCE TERM
 =  467.6    (WHEN MIN. R.F.=1)  AT K=   2, I=   1, J= 120

 MAXIMUM STEPSIZE WHICH MEETS STABILITY CRITERION OF THE DISPERSION TERM
 =  20.29    (WHEN MIN. R.F.=1)  AT K=   1, I=   1, J=  31
     1 CALLS TO GCG PACKAGE FOR TRANSPORT TIME STEP   3 IN FLOW TIME STEP 281 STRESS PERIOD   1
     6 TOTAL ITERATIONS
 
 SOLVING FOR HEAD 
 FLOW MODEL IS TRANSIENT
 FLOW MODEL CONTAINS CONSTANT-HEAD CELLS


 MAXIMUM STEPSIZE DURING WHICH ANY PARTICLE CANNOT MOVE MORE THAN ONE CELL
 =  5.460    (WHEN MIN. R.F.=1)  AT K=   4, I=   1, J=  74

 MAXIMUM STEPSIZE WHICH MEETS STABILITY CRITERION OF THE ADVECTION TERM
 (FOR PURE FINITE-DIFFERENCE OPTION, MIXELM=0) 
 =  3.540    (WHEN MIN. R.F.=1)  AT K=   2, I=   1, J=  80


 TOTAL NUMBER OF POINT SOURCES/SINKS PRESENT IN THE FLOW MODEL =    62

 MAXIMUM STEPSIZE WHICH MEETS STABILITY CRITERION OF THE SINK & SOURCE TERM
 =  471.1    (WHEN MIN. R.F.=1)  AT K=   2, I=   1, J= 120

 MAXIMUM STEPSIZE WHICH MEETS STABILITY CRITERION OF THE DISPERSION TERM
 =  20.29    (WHEN MIN. R.F.=1)  AT K=   1, I=   1, J=  31
     1 CALLS TO GCG PACKAGE FOR TRANSPORT TIME STEP   4 IN FLOW TIME STEP 281 STRESS PERIOD   1
     5 TOTAL ITERATIONS
  MAXIMUM CONCENTRATION CHANGES FOR EACH ITERATION:
  MAX. CHANGE LAYER,ROW,COL MAX. CHANGE LAYER,ROW,COL MAX. CHANGE LAYER,ROW,COL MAX. CHANGE LAYER,ROW,COL MAX. CHANGE LAYER,ROW,COL
 ------------------------------------------------------------------------------------------------------------------------------------
   0.1930E-01 (  2,  1, 81)  0.5017E-03 (  2,  1, 81)  0.1823E-04 (  3,  1, 79)  0.6045E-06 (  4,  1, 79)  0.1766E-07 (  4,  1, 77)


                                          ================================================
                                                         FROM TIME =   2810.0     TO    2820.0    

 
 SOLVING FOR HEAD 
 FLOW MODEL IS TRANSIENT
 FLOW MODEL CONTAINS CONSTANT-HEAD CELLS


 MAXIMUM STEPSIZE DURING WHICH ANY PARTICLE CANNOT MOVE MORE THAN ONE CELL
 =  5.470    (WHEN MIN. R.F.=1)  AT K=   4, I=   1, J=  74

 MAXIMUM STEPSIZE WHICH MEETS STABILITY CRITERION OF THE ADVECTION TERM
 (FOR PURE FINITE-DIFFERENCE OPTION, MIXELM=0) 
 =  3.544    (WHEN MIN. R.F.=1)  AT K=   2, I=   1, J=  80


 TOTAL NUMBER OF POINT SOURCES/SINKS PRESENT IN THE FLOW MODEL =    62

 MAXIMUM STEPSIZE WHICH MEETS STABILITY CRITERION OF THE SINK & SOURCE TERM
 =  542.6    (WHEN MIN. R.F.=1)  AT K=   2, I=   1, J= 120

 MAXIMUM STEPSIZE WHICH MEETS STABILITY CRITERION OF THE DISPERSION TERM
 =  20.29    (WHEN MIN. R.F.=1)  AT K=   1, I=   1, J=  31


     1 CALLS TO GCG PACKAGE FOR TRANSPORT TIME STEP   1 IN FLOW TIME STEP 282 STRESS PERIOD   1
     6 TOTAL ITERATIONS

 NO OUTPUT CONTROL FOR STRESS PERIOD    1   TIME STEP 282
 
 SOLVING FOR HEAD 
 FLOW MODEL IS TRANSIENT
 FLOW MODEL CONTAINS CONSTANT-HEAD CELLS


 MAXIMUM STEPSIZE DURING WHICH ANY PARTICLE CANNOT MOVE MORE THAN ONE CELL
 =  5.561    (WHEN MIN. R.F.=1)  AT K=   4, I=   1, J=  74

 MAXIMUM STEPSIZE WHICH MEETS STABILITY CRITERION OF THE ADVECTION TERM
 (FOR PURE FINITE-DIFFERENCE OPTION, MIXELM=0) 
 =  3.684    (WHEN MIN. R.F.=1)  AT K=   2, I=   1, J=  80


 TOTAL NUMBER OF POINT SOURCES/SINKS PRESENT IN THE FLOW MODEL =    62

 MAXIMUM STEPSIZE WHICH MEETS STABILITY CRITERION OF THE SINK & SOURCE TERM
 =  519.6    (WHEN MIN. R.F.=1)  AT K=   2, I=   1, J= 120

 MAXIMUM STEPSIZE WHICH MEETS STABILITY CRITERION OF THE DISPERSION TERM
 =  20.29    (WHEN MIN. R.F.=1)  AT K=   1, I=   1, J=  31
     1 CALLS TO GCG PACKAGE FOR TRANSPORT TIME STEP   2 IN FLOW TIME STEP 282 STRESS PERIOD   1
     6 TOTAL ITERATIONS
 
 SOLVING FOR HEAD 
 FLOW MODEL IS TRANSIENT
 FLOW MODEL CONTAINS CONSTANT-HEAD CELLS


 MAXIMUM STEPSIZE DURING WHICH ANY PARTICLE CANNOT MOVE MORE THAN ONE CELL
 =  5.619    (WHEN MIN. R.F.=1)  AT K=   5, I=   1, J=  74

 MAXIMUM STEPSIZE WHICH MEETS STABILITY CRITERION OF THE ADVECTION TERM
 (FOR PURE FINITE-DIFFERENCE OPTION, MIXELM=0) 
 =  3.825    (WHEN MIN. R.F.=1)  AT K=   2, I=   1, J=  79


 TOTAL NUMBER OF POINT SOURCES/SINKS PRESENT IN THE FLOW MODEL =    62

 MAXIMUM STEPSIZE WHICH MEETS STABILITY CRITERION OF THE SINK & SOURCE TERM
 =  536.6    (WHEN MIN. R.F.=1)  AT K=   2, I=   1, J= 120

 MAXIMUM STEPSIZE WHICH MEETS STABILITY CRITERION OF THE DISPERSION TERM
 =  20.29    (WHEN MIN. R.F.=1)  AT K=   1, I=   1, J=  31
     1 CALLS TO GCG PACKAGE FOR TRANSPORT TIME STEP   3 IN FLOW TIME STEP 282 STRESS PERIOD   1
     6 TOTAL ITERATIONS
 
 SOLVING FOR HEAD 
 FLOW MODEL IS TRANSIENT
 FLOW MODEL CONTAINS CONSTANT-HEAD CELLS


 MAXIMUM STEPSIZE DURING WHICH ANY PARTICLE CANNOT MOVE MORE THAN ONE CELL
 =  5.721    (WHEN MIN. R.F.=1)  AT K=   5, I=   1, J=  74

 MAXIMUM STEPSIZE WHICH MEETS STABILITY CRITERION OF THE ADVECTION TERM
 (FOR PURE FINITE-DIFFERENCE OPTION, MIXELM=0) 
 =  3.575    (WHEN MIN. R.F.=1)  AT K=   2, I=   1, J=  79


 TOTAL NUMBER OF POINT SOURCES/SINKS PRESENT IN THE FLOW MODEL =    62

 MAXIMUM STEPSIZE WHICH MEETS STABILITY CRITERION OF THE SINK & SOURCE TERM
 =  539.7    (WHEN MIN. R.F.=1)  AT K=   2, I=   1, J= 120

 MAXIMUM STEPSIZE WHICH MEETS STABILITY CRITERION OF THE DISPERSION TERM
 =  20.29    (WHEN MIN. R.F.=1)  AT K=   1, I=   1, J=  31
     1 CALLS TO GCG PACKAGE FOR TRANSPORT TIME STEP   4 IN FLOW TIME STEP 282 STRESS PERIOD   1
     5 TOTAL ITERATIONS
  MAXIMUM CONCENTRATION CHANGES FOR EACH ITERATION:
  MAX. CHANGE LAYER,ROW,COL MAX. CHANGE LAYER,ROW,COL MAX. CHANGE LAYER,ROW,COL MAX. CHANGE LAYER,ROW,COL MAX. CHANGE LAYER,ROW,COL
 ------------------------------------------------------------------------------------------------------------------------------------
   0.2166E-01 (  2,  1, 43)  0.6916E-03 (  2,  1, 79)  0.2712E-04 (  2,  1, 76)  0.1803E-05 (  3,  1, 76)  0.6011E-07 (  4,  1, 76)


                                          ================================================
                                                         FROM TIME =   2820.0     TO    2830.0    

 
 SOLVING FOR HEAD 
 FLOW MODEL IS TRANSIENT
 FLOW MODEL CONTAINS CONSTANT-HEAD CELLS


 MAXIMUM STEPSIZE DURING WHICH ANY PARTICLE CANNOT MOVE MORE THAN ONE CELL
 =  5.794    (WHEN MIN. R.F.=1)  AT K=  28, I=   1, J=  54

 MAXIMUM STEPSIZE WHICH MEETS STABILITY CRITERION OF THE ADVECTION TERM
 (FOR PURE FINITE-DIFFERENCE OPTION, MIXELM=0) 
 =  3.509    (WHEN MIN. R.F.=1)  AT K=   2, I=   1, J=  79


 TOTAL NUMBER OF POINT SOURCES/SINKS PRESENT IN THE FLOW MODEL =    62

 MAXIMUM STEPSIZE WHICH MEETS STABILITY CRITERION OF THE SINK & SOURCE TERM
 =  566.5    (WHEN MIN. R.F.=1)  AT K=   2, I=   1, J= 120

 MAXIMUM STEPSIZE WHICH MEETS STABILITY CRITERION OF THE DISPERSION TERM
 =  20.29    (WHEN MIN. R.F.=1)  AT K=   1, I=   1, J=  31


     1 CALLS TO GCG PACKAGE FOR TRANSPORT TIME STEP   1 IN FLOW TIME STEP 283 STRESS PERIOD   1
     6 TOTAL ITERATIONS

 NO OUTPUT CONTROL FOR STRESS PERIOD    1   TIME STEP 283
 
 SOLVING FOR HEAD 
 FLOW MODEL IS TRANSIENT
 FLOW MODEL CONTAINS CONSTANT-HEAD CELLS


 MAXIMUM STEPSIZE DURING WHICH ANY PARTICLE CANNOT MOVE MORE THAN ONE CELL
 =  5.790    (WHEN MIN. R.F.=1)  AT K=  28, I=   1, J=  54

 MAXIMUM STEPSIZE WHICH MEETS STABILITY CRITERION OF THE ADVECTION TERM
 (FOR PURE FINITE-DIFFERENCE OPTION, MIXELM=0) 
 =  3.513    (WHEN MIN. R.F.=1)  AT K=   2, I=   1, J=  79


 TOTAL NUMBER OF POINT SOURCES/SINKS PRESENT IN THE FLOW MODEL =    62

 MAXIMUM STEPSIZE WHICH MEETS STABILITY CRITERION OF THE SINK & SOURCE TERM
 =  559.1    (WHEN MIN. R.F.=1)  AT K=   2, I=   1, J= 120

 MAXIMUM STEPSIZE WHICH MEETS STABILITY CRITERION OF THE DISPERSION TERM
 =  20.29    (WHEN MIN. R.F.=1)  AT K=   1, I=   1, J=  31
     1 CALLS TO GCG PACKAGE FOR TRANSPORT TIME STEP   2 IN FLOW TIME STEP 283 STRESS PERIOD   1
     6 TOTAL ITERATIONS
 
 SOLVING FOR HEAD 
 FLOW MODEL IS TRANSIENT
 FLOW MODEL CONTAINS CONSTANT-HEAD CELLS


 MAXIMUM STEPSIZE DURING WHICH ANY PARTICLE CANNOT MOVE MORE THAN ONE CELL
 =  5.787    (WHEN MIN. R.F.=1)  AT K=  28, I=   1, J=  54

 MAXIMUM STEPSIZE WHICH MEETS STABILITY CRITERION OF THE ADVECTION TERM
 (FOR PURE FINITE-DIFFERENCE OPTION, MIXELM=0) 
 =  3.656    (WHEN MIN. R.F.=1)  AT K=   2, I=   1, J=  79


 TOTAL NUMBER OF POINT SOURCES/SINKS PRESENT IN THE FLOW MODEL =    62

 MAXIMUM STEPSIZE WHICH MEETS STABILITY CRITERION OF THE SINK & SOURCE TERM
 =  578.8    (WHEN MIN. R.F.=1)  AT K=   2, I=   1, J= 120

 MAXIMUM STEPSIZE WHICH MEETS STABILITY CRITERION OF THE DISPERSION TERM
 =  20.29    (WHEN MIN. R.F.=1)  AT K=   1, I=   1, J=  31
     1 CALLS TO GCG PACKAGE FOR TRANSPORT TIME STEP   3 IN FLOW TIME STEP 283 STRESS PERIOD   1
     6 TOTAL ITERATIONS
 
 SOLVING FOR HEAD 
 FLOW MODEL IS TRANSIENT
 FLOW MODEL CONTAINS CONSTANT-HEAD CELLS


 MAXIMUM STEPSIZE DURING WHICH ANY PARTICLE CANNOT MOVE MORE THAN ONE CELL
 =  5.783    (WHEN MIN. R.F.=1)  AT K=  28, I=   1, J=  54

 MAXIMUM STEPSIZE WHICH MEETS STABILITY CRITERION OF THE ADVECTION TERM
 (FOR PURE FINITE-DIFFERENCE OPTION, MIXELM=0) 
 =  3.993    (WHEN MIN. R.F.=1)  AT K=   2, I=   1, J=  78


 TOTAL NUMBER OF POINT SOURCES/SINKS PRESENT IN THE FLOW MODEL =    62

 MAXIMUM STEPSIZE WHICH MEETS STABILITY CRITERION OF THE SINK & SOURCE TERM
 =  623.2    (WHEN MIN. R.F.=1)  AT K=   2, I=   1, J= 120

 MAXIMUM STEPSIZE WHICH MEETS STABILITY CRITERION OF THE DISPERSION TERM
 =  20.29    (WHEN MIN. R.F.=1)  AT K=   1, I=   1, J=  31
     1 CALLS TO GCG PACKAGE FOR TRANSPORT TIME STEP   4 IN FLOW TIME STEP 283 STRESS PERIOD   1
     5 TOTAL ITERATIONS
  MAXIMUM CONCENTRATION CHANGES FOR EACH ITERATION:
  MAX. CHANGE LAYER,ROW,COL MAX. CHANGE LAYER,ROW,COL MAX. CHANGE LAYER,ROW,COL MAX. CHANGE LAYER,ROW,COL MAX. CHANGE LAYER,ROW,COL
 ------------------------------------------------------------------------------------------------------------------------------------
   0.2435E-01 (  2,  1, 80)  0.8744E-03 (  2,  1, 78)  0.3666E-04 (  3,  1, 78)  0.1338E-05 (  4,  1, 78)  0.6061E-07 (  4,  1, 79)


                                          ================================================
                                                         FROM TIME =   2830.0     TO    2840.0    

 
 SOLVING FOR HEAD 
 FLOW MODEL IS TRANSIENT
 FLOW MODEL CONTAINS CONSTANT-HEAD CELLS


 MAXIMUM STEPSIZE DURING WHICH ANY PARTICLE CANNOT MOVE MORE THAN ONE CELL
 =  5.783    (WHEN MIN. R.F.=1)  AT K=  28, I=   1, J=  54

 MAXIMUM STEPSIZE WHICH MEETS STABILITY CRITERION OF THE ADVECTION TERM
 (FOR PURE FINITE-DIFFERENCE OPTION, MIXELM=0) 
 =  3.776    (WHEN MIN. R.F.=1)  AT K=   2, I=   1, J=  78


 TOTAL NUMBER OF POINT SOURCES/SINKS PRESENT IN THE FLOW MODEL =    62

 MAXIMUM STEPSIZE WHICH MEETS STABILITY CRITERION OF THE SINK & SOURCE TERM
 =  719.8    (WHEN MIN. R.F.=1)  AT K=   2, I=   1, J= 120

 MAXIMUM STEPSIZE WHICH MEETS STABILITY CRITERION OF THE DISPERSION TERM
 =  20.29    (WHEN MIN. R.F.=1)  AT K=   1, I=   1, J=  31


     1 CALLS TO GCG PACKAGE FOR TRANSPORT TIME STEP   1 IN FLOW TIME STEP 284 STRESS PERIOD   1
     6 TOTAL ITERATIONS

 NO OUTPUT CONTROL FOR STRESS PERIOD    1   TIME STEP 284
 
 SOLVING FOR HEAD 
 FLOW MODEL IS TRANSIENT
 FLOW MODEL CONTAINS CONSTANT-HEAD CELLS


 MAXIMUM STEPSIZE DURING WHICH ANY PARTICLE CANNOT MOVE MORE THAN ONE CELL
 =  5.777    (WHEN MIN. R.F.=1)  AT K=  28, I=   1, J=  54

 MAXIMUM STEPSIZE WHICH MEETS STABILITY CRITERION OF THE ADVECTION TERM
 (FOR PURE FINITE-DIFFERENCE OPTION, MIXELM=0) 
 =  3.606    (WHEN MIN. R.F.=1)  AT K=   2, I=   1, J=  78


 TOTAL NUMBER OF POINT SOURCES/SINKS PRESENT IN THE FLOW MODEL =    62

 MAXIMUM STEPSIZE WHICH MEETS STABILITY CRITERION OF THE SINK & SOURCE TERM
 =  720.1    (WHEN MIN. R.F.=1)  AT K=   2, I=   1, J= 120

 MAXIMUM STEPSIZE WHICH MEETS STABILITY CRITERION OF THE DISPERSION TERM
 =  20.29    (WHEN MIN. R.F.=1)  AT K=   1, I=   1, J=  31
     1 CALLS TO GCG PACKAGE FOR TRANSPORT TIME STEP   2 IN FLOW TIME STEP 284 STRESS PERIOD   1
     6 TOTAL ITERATIONS
 
 SOLVING FOR HEAD 
 FLOW MODEL IS TRANSIENT
 FLOW MODEL CONTAINS CONSTANT-HEAD CELLS


 MAXIMUM STEPSIZE DURING WHICH ANY PARTICLE CANNOT MOVE MORE THAN ONE CELL
 =  5.772    (WHEN MIN. R.F.=1)  AT K=  28, I=   1, J=  54

 MAXIMUM STEPSIZE WHICH MEETS STABILITY CRITERION OF THE ADVECTION TERM
 (FOR PURE FINITE-DIFFERENCE OPTION, MIXELM=0) 
 =  3.597    (WHEN MIN. R.F.=1)  AT K=   2, I=   1, J=  78


 TOTAL NUMBER OF POINT SOURCES/SINKS PRESENT IN THE FLOW MODEL =    62

 MAXIMUM STEPSIZE WHICH MEETS STABILITY CRITERION OF THE SINK & SOURCE TERM
 =  763.2    (WHEN MIN. R.F.=1)  AT K=   2, I=   1, J= 120

 MAXIMUM STEPSIZE WHICH MEETS STABILITY CRITERION OF THE DISPERSION TERM
 =  20.29    (WHEN MIN. R.F.=1)  AT K=   1, I=   1, J=  31
     1 CALLS TO GCG PACKAGE FOR TRANSPORT TIME STEP   3 IN FLOW TIME STEP 284 STRESS PERIOD   1
     6 TOTAL ITERATIONS
 
 SOLVING FOR HEAD 
 FLOW MODEL IS TRANSIENT
 FLOW MODEL CONTAINS CONSTANT-HEAD CELLS


 MAXIMUM STEPSIZE DURING WHICH ANY PARTICLE CANNOT MOVE MORE THAN ONE CELL
 =  5.769    (WHEN MIN. R.F.=1)  AT K=  28, I=   1, J=  54

 MAXIMUM STEPSIZE WHICH MEETS STABILITY CRITERION OF THE ADVECTION TERM
 (FOR PURE FINITE-DIFFERENCE OPTION, MIXELM=0) 
 =  3.708    (WHEN MIN. R.F.=1)  AT K=   2, I=   1, J=  78


 TOTAL NUMBER OF POINT SOURCES/SINKS PRESENT IN THE FLOW MODEL =    62

 MAXIMUM STEPSIZE WHICH MEETS STABILITY CRITERION OF THE SINK & SOURCE TERM
 =  807.7    (WHEN MIN. R.F.=1)  AT K=   2, I=   1, J= 120

 MAXIMUM STEPSIZE WHICH MEETS STABILITY CRITERION OF THE DISPERSION TERM
 =  20.29    (WHEN MIN. R.F.=1)  AT K=   1, I=   1, J=  31
     1 CALLS TO GCG PACKAGE FOR TRANSPORT TIME STEP   4 IN FLOW TIME STEP 284 STRESS PERIOD   1
     5 TOTAL ITERATIONS
  MAXIMUM CONCENTRATION CHANGES FOR EACH ITERATION:
  MAX. CHANGE LAYER,ROW,COL MAX. CHANGE LAYER,ROW,COL MAX. CHANGE LAYER,ROW,COL MAX. CHANGE LAYER,ROW,COL MAX. CHANGE LAYER,ROW,COL
 ------------------------------------------------------------------------------------------------------------------------------------
   0.1905E-01 (  2,  1, 79)  0.3749E-03 (  2,  1, 77)  0.1266E-04 (  3,  1, 77)  0.4162E-06 (  3,  1, 80)  0.1107E-07 (  3,  1, 88)


                                          ================================================
                                                         FROM TIME =   2840.0     TO    2850.0    

 
 SOLVING FOR HEAD 
 FLOW MODEL IS TRANSIENT
 FLOW MODEL CONTAINS CONSTANT-HEAD CELLS


 MAXIMUM STEPSIZE DURING WHICH ANY PARTICLE CANNOT MOVE MORE THAN ONE CELL
 =  5.773    (WHEN MIN. R.F.=1)  AT K=  28, I=   1, J=  54

 MAXIMUM STEPSIZE WHICH MEETS STABILITY CRITERION OF THE ADVECTION TERM
 (FOR PURE FINITE-DIFFERENCE OPTION, MIXELM=0) 
 =  3.848    (WHEN MIN. R.F.=1)  AT K=   2, I=   1, J=  78


 TOTAL NUMBER OF POINT SOURCES/SINKS PRESENT IN THE FLOW MODEL =    62

 MAXIMUM STEPSIZE WHICH MEETS STABILITY CRITERION OF THE SINK & SOURCE TERM
 =  863.0    (WHEN MIN. R.F.=1)  AT K=   2, I=   1, J= 120

 MAXIMUM STEPSIZE WHICH MEETS STABILITY CRITERION OF THE DISPERSION TERM
 =  20.29    (WHEN MIN. R.F.=1)  AT K=   1, I=   1, J=  31


     1 CALLS TO GCG PACKAGE FOR TRANSPORT TIME STEP   1 IN FLOW TIME STEP 285 STRESS PERIOD   1
     6 TOTAL ITERATIONS

 NO OUTPUT CONTROL FOR STRESS PERIOD    1   TIME STEP 285
 
 SOLVING FOR HEAD 
 FLOW MODEL IS TRANSIENT
 FLOW MODEL CONTAINS CONSTANT-HEAD CELLS


 MAXIMUM STEPSIZE DURING WHICH ANY PARTICLE CANNOT MOVE MORE THAN ONE CELL
 =  5.771    (WHEN MIN. R.F.=1)  AT K=  28, I=   1, J=  54

 MAXIMUM STEPSIZE WHICH MEETS STABILITY CRITERION OF THE ADVECTION TERM
 (FOR PURE FINITE-DIFFERENCE OPTION, MIXELM=0) 
 =  4.075    (WHEN MIN. R.F.=1)  AT K=   2, I=   1, J=  77


 TOTAL NUMBER OF POINT SOURCES/SINKS PRESENT IN THE FLOW MODEL =    62

 MAXIMUM STEPSIZE WHICH MEETS STABILITY CRITERION OF THE SINK & SOURCE TERM
 =  791.8    (WHEN MIN. R.F.=1)  AT K=   2, I=   1, J= 120

 MAXIMUM STEPSIZE WHICH MEETS STABILITY CRITERION OF THE DISPERSION TERM
 =  20.29    (WHEN MIN. R.F.=1)  AT K=   1, I=   1, J=  31
     1 CALLS TO GCG PACKAGE FOR TRANSPORT TIME STEP   2 IN FLOW TIME STEP 285 STRESS PERIOD   1
     6 TOTAL ITERATIONS
 
 SOLVING FOR HEAD 
 FLOW MODEL IS TRANSIENT
 FLOW MODEL CONTAINS CONSTANT-HEAD CELLS


 MAXIMUM STEPSIZE DURING WHICH ANY PARTICLE CANNOT MOVE MORE THAN ONE CELL
 =  5.767    (WHEN MIN. R.F.=1)  AT K=  28, I=   1, J=  54

 MAXIMUM STEPSIZE WHICH MEETS STABILITY CRITERION OF THE ADVECTION TERM
 (FOR PURE FINITE-DIFFERENCE OPTION, MIXELM=0) 
 =  3.810    (WHEN MIN. R.F.=1)  AT K=   2, I=   1, J=  77


 TOTAL NUMBER OF POINT SOURCES/SINKS PRESENT IN THE FLOW MODEL =    62

 MAXIMUM STEPSIZE WHICH MEETS STABILITY CRITERION OF THE SINK & SOURCE TERM
 =  862.1    (WHEN MIN. R.F.=1)  AT K=   2, I=   1, J= 120

 MAXIMUM STEPSIZE WHICH MEETS STABILITY CRITERION OF THE DISPERSION TERM
 =  20.29    (WHEN MIN. R.F.=1)  AT K=   1, I=   1, J=  31
     1 CALLS TO GCG PACKAGE FOR TRANSPORT TIME STEP   3 IN FLOW TIME STEP 285 STRESS PERIOD   1
     6 TOTAL ITERATIONS
 
 SOLVING FOR HEAD 
 FLOW MODEL IS TRANSIENT
 FLOW MODEL CONTAINS CONSTANT-HEAD CELLS


 MAXIMUM STEPSIZE DURING WHICH ANY PARTICLE CANNOT MOVE MORE THAN ONE CELL
 =  5.762    (WHEN MIN. R.F.=1)  AT K=  28, I=   1, J=  54

 MAXIMUM STEPSIZE WHICH MEETS STABILITY CRITERION OF THE ADVECTION TERM
 (FOR PURE FINITE-DIFFERENCE OPTION, MIXELM=0) 
 =  3.704    (WHEN MIN. R.F.=1)  AT K=   2, I=   1, J=  77


 TOTAL NUMBER OF POINT SOURCES/SINKS PRESENT IN THE FLOW MODEL =    62

 MAXIMUM STEPSIZE WHICH MEETS STABILITY CRITERION OF THE SINK & SOURCE TERM
 =  915.2    (WHEN MIN. R.F.=1)  AT K=   2, I=   1, J= 120

 MAXIMUM STEPSIZE WHICH MEETS STABILITY CRITERION OF THE DISPERSION TERM
 =  20.29    (WHEN MIN. R.F.=1)  AT K=   1, I=   1, J=  31
     1 CALLS TO GCG PACKAGE FOR TRANSPORT TIME STEP   4 IN FLOW TIME STEP 285 STRESS PERIOD   1
     5 TOTAL ITERATIONS
  MAXIMUM CONCENTRATION CHANGES FOR EACH ITERATION:
  MAX. CHANGE LAYER,ROW,COL MAX. CHANGE LAYER,ROW,COL MAX. CHANGE LAYER,ROW,COL MAX. CHANGE LAYER,ROW,COL MAX. CHANGE LAYER,ROW,COL
 ------------------------------------------------------------------------------------------------------------------------------------
   0.1505E-01 (  2,  1, 38)  0.3092E-03 (  2,  1, 78)  0.8707E-05 (  3,  1, 75)  0.2094E-06 (  3,  1, 79)  0.5974E-08 (  3,  1, 73)


                                          ================================================
                                                         FROM TIME =   2850.0     TO    2860.0    

 
 SOLVING FOR HEAD 
 FLOW MODEL IS TRANSIENT
 FLOW MODEL CONTAINS CONSTANT-HEAD CELLS


 MAXIMUM STEPSIZE DURING WHICH ANY PARTICLE CANNOT MOVE MORE THAN ONE CELL
 =  5.766    (WHEN MIN. R.F.=1)  AT K=  28, I=   1, J=  54

 MAXIMUM STEPSIZE WHICH MEETS STABILITY CRITERION OF THE ADVECTION TERM
 (FOR PURE FINITE-DIFFERENCE OPTION, MIXELM=0) 
 =  3.711    (WHEN MIN. R.F.=1)  AT K=   2, I=   1, J=  77


 TOTAL NUMBER OF POINT SOURCES/SINKS PRESENT IN THE FLOW MODEL =    62

 MAXIMUM STEPSIZE WHICH MEETS STABILITY CRITERION OF THE SINK & SOURCE TERM
 =  1222.    (WHEN MIN. R.F.=1)  AT K=   2, I=   1, J= 120

 MAXIMUM STEPSIZE WHICH MEETS STABILITY CRITERION OF THE DISPERSION TERM
 =  20.29    (WHEN MIN. R.F.=1)  AT K=   1, I=   1, J=  31


     1 CALLS TO GCG PACKAGE FOR TRANSPORT TIME STEP   1 IN FLOW TIME STEP 286 STRESS PERIOD   1
     6 TOTAL ITERATIONS

 NO OUTPUT CONTROL FOR STRESS PERIOD    1   TIME STEP 286
 
 SOLVING FOR HEAD 
 FLOW MODEL IS TRANSIENT
 FLOW MODEL CONTAINS CONSTANT-HEAD CELLS


 MAXIMUM STEPSIZE DURING WHICH ANY PARTICLE CANNOT MOVE MORE THAN ONE CELL
 =  5.765    (WHEN MIN. R.F.=1)  AT K=  28, I=   1, J=  54

 MAXIMUM STEPSIZE WHICH MEETS STABILITY CRITERION OF THE ADVECTION TERM
 (FOR PURE FINITE-DIFFERENCE OPTION, MIXELM=0) 
 =  3.786    (WHEN MIN. R.F.=1)  AT K=   2, I=   1, J=  77


 TOTAL NUMBER OF POINT SOURCES/SINKS PRESENT IN THE FLOW MODEL =    62

 MAXIMUM STEPSIZE WHICH MEETS STABILITY CRITERION OF THE SINK & SOURCE TERM
 =  1050.    (WHEN MIN. R.F.=1)  AT K=   2, I=   1, J= 120

 MAXIMUM STEPSIZE WHICH MEETS STABILITY CRITERION OF THE DISPERSION TERM
 =  20.29    (WHEN MIN. R.F.=1)  AT K=   1, I=   1, J=  31
     1 CALLS TO GCG PACKAGE FOR TRANSPORT TIME STEP   2 IN FLOW TIME STEP 286 STRESS PERIOD   1
     6 TOTAL ITERATIONS
 
 SOLVING FOR HEAD 
 FLOW MODEL IS TRANSIENT
 FLOW MODEL CONTAINS CONSTANT-HEAD CELLS


 MAXIMUM STEPSIZE DURING WHICH ANY PARTICLE CANNOT MOVE MORE THAN ONE CELL
 =  5.763    (WHEN MIN. R.F.=1)  AT K=  28, I=   1, J=  54

 MAXIMUM STEPSIZE WHICH MEETS STABILITY CRITERION OF THE ADVECTION TERM
 (FOR PURE FINITE-DIFFERENCE OPTION, MIXELM=0) 
 =  3.999    (WHEN MIN. R.F.=1)  AT K=   2, I=   1, J=  77


 TOTAL NUMBER OF POINT SOURCES/SINKS PRESENT IN THE FLOW MODEL =    62

 MAXIMUM STEPSIZE WHICH MEETS STABILITY CRITERION OF THE SINK & SOURCE TERM
 =  954.5    (WHEN MIN. R.F.=1)  AT K=   2, I=   1, J= 120

 MAXIMUM STEPSIZE WHICH MEETS STABILITY CRITERION OF THE DISPERSION TERM
 =  20.29    (WHEN MIN. R.F.=1)  AT K=   1, I=   1, J=  31
     1 CALLS TO GCG PACKAGE FOR TRANSPORT TIME STEP   3 IN FLOW TIME STEP 286 STRESS PERIOD   1
     6 TOTAL ITERATIONS
 
 SOLVING FOR HEAD 
 FLOW MODEL IS TRANSIENT
 FLOW MODEL CONTAINS CONSTANT-HEAD CELLS


 MAXIMUM STEPSIZE DURING WHICH ANY PARTICLE CANNOT MOVE MORE THAN ONE CELL
 =  5.761    (WHEN MIN. R.F.=1)  AT K=  28, I=   1, J=  54

 MAXIMUM STEPSIZE WHICH MEETS STABILITY CRITERION OF THE ADVECTION TERM
 (FOR PURE FINITE-DIFFERENCE OPTION, MIXELM=0) 
 =  3.992    (WHEN MIN. R.F.=1)  AT K=   2, I=   1, J=  40


 TOTAL NUMBER OF POINT SOURCES/SINKS PRESENT IN THE FLOW MODEL =    62

 MAXIMUM STEPSIZE WHICH MEETS STABILITY CRITERION OF THE SINK & SOURCE TERM
 =  927.0    (WHEN MIN. R.F.=1)  AT K=   2, I=   1, J= 120

 MAXIMUM STEPSIZE WHICH MEETS STABILITY CRITERION OF THE DISPERSION TERM
 =  20.29    (WHEN MIN. R.F.=1)  AT K=   1, I=   1, J=  31
     1 CALLS TO GCG PACKAGE FOR TRANSPORT TIME STEP   4 IN FLOW TIME STEP 286 STRESS PERIOD   1
     5 TOTAL ITERATIONS
  MAXIMUM CONCENTRATION CHANGES FOR EACH ITERATION:
  MAX. CHANGE LAYER,ROW,COL MAX. CHANGE LAYER,ROW,COL MAX. CHANGE LAYER,ROW,COL MAX. CHANGE LAYER,ROW,COL MAX. CHANGE LAYER,ROW,COL
 ------------------------------------------------------------------------------------------------------------------------------------
   0.1852E-01 (  2,  1, 39)  0.5806E-03 (  2,  1, 76)  0.1630E-04 (  3,  1, 76)  0.5100E-06 (  3,  1, 75)  0.2206E-07 (  4,  1, 75)


                                          ================================================
                                                         FROM TIME =   2860.0     TO    2870.0    

 
 SOLVING FOR HEAD 
 FLOW MODEL IS TRANSIENT
 FLOW MODEL CONTAINS CONSTANT-HEAD CELLS


 MAXIMUM STEPSIZE DURING WHICH ANY PARTICLE CANNOT MOVE MORE THAN ONE CELL
 =  5.766    (WHEN MIN. R.F.=1)  AT K=  28, I=   1, J=  54

 MAXIMUM STEPSIZE WHICH MEETS STABILITY CRITERION OF THE ADVECTION TERM
 (FOR PURE FINITE-DIFFERENCE OPTION, MIXELM=0) 
 =  4.062    (WHEN MIN. R.F.=1)  AT K=   2, I=   1, J=  40


 TOTAL NUMBER OF POINT SOURCES/SINKS PRESENT IN THE FLOW MODEL =    62

 MAXIMUM STEPSIZE WHICH MEETS STABILITY CRITERION OF THE SINK & SOURCE TERM
 =  1024.    (WHEN MIN. R.F.=1)  AT K=   2, I=   1, J= 120

 MAXIMUM STEPSIZE WHICH MEETS STABILITY CRITERION OF THE DISPERSION TERM
 =  20.29    (WHEN MIN. R.F.=1)  AT K=   1, I=   1, J=  31


     1 CALLS TO GCG PACKAGE FOR TRANSPORT TIME STEP   1 IN FLOW TIME STEP 287 STRESS PERIOD   1
     6 TOTAL ITERATIONS

 NO OUTPUT CONTROL FOR STRESS PERIOD    1   TIME STEP 287
 
 SOLVING FOR HEAD 
 FLOW MODEL IS TRANSIENT
 FLOW MODEL CONTAINS CONSTANT-HEAD CELLS


 MAXIMUM STEPSIZE DURING WHICH ANY PARTICLE CANNOT MOVE MORE THAN ONE CELL
 =  5.763    (WHEN MIN. R.F.=1)  AT K=  28, I=   1, J=  54

 MAXIMUM STEPSIZE WHICH MEETS STABILITY CRITERION OF THE ADVECTION TERM
 (FOR PURE FINITE-DIFFERENCE OPTION, MIXELM=0) 
 =  4.147    (WHEN MIN. R.F.=1)  AT K=   2, I=   1, J=  41


 TOTAL NUMBER OF POINT SOURCES/SINKS PRESENT IN THE FLOW MODEL =    62

 MAXIMUM STEPSIZE WHICH MEETS STABILITY CRITERION OF THE SINK & SOURCE TERM
 =  938.2    (WHEN MIN. R.F.=1)  AT K=   2, I=   1, J= 120

 MAXIMUM STEPSIZE WHICH MEETS STABILITY CRITERION OF THE DISPERSION TERM
 =  20.29    (WHEN MIN. R.F.=1)  AT K=   1, I=   1, J=  31
     1 CALLS TO GCG PACKAGE FOR TRANSPORT TIME STEP   2 IN FLOW TIME STEP 287 STRESS PERIOD   1
     6 TOTAL ITERATIONS
 
 SOLVING FOR HEAD 
 FLOW MODEL IS TRANSIENT
 FLOW MODEL CONTAINS CONSTANT-HEAD CELLS


 MAXIMUM STEPSIZE DURING WHICH ANY PARTICLE CANNOT MOVE MORE THAN ONE CELL
 =  5.618    (WHEN MIN. R.F.=1)  AT K=   4, I=   1, J=  48

 MAXIMUM STEPSIZE WHICH MEETS STABILITY CRITERION OF THE ADVECTION TERM
 (FOR PURE FINITE-DIFFERENCE OPTION, MIXELM=0) 
 =  3.828    (WHEN MIN. R.F.=1)  AT K=   2, I=   1, J=  41


 TOTAL NUMBER OF POINT SOURCES/SINKS PRESENT IN THE FLOW MODEL =    62

 MAXIMUM STEPSIZE WHICH MEETS STABILITY CRITERION OF THE SINK & SOURCE TERM
 =  1125.    (WHEN MIN. R.F.=1)  AT K=   2, I=   1, J= 120

 MAXIMUM STEPSIZE WHICH MEETS STABILITY CRITERION OF THE DISPERSION TERM
 =  20.29    (WHEN MIN. R.F.=1)  AT K=   1, I=   1, J=  31
     1 CALLS TO GCG PACKAGE FOR TRANSPORT TIME STEP   3 IN FLOW TIME STEP 287 STRESS PERIOD   1
     6 TOTAL ITERATIONS
 
 SOLVING FOR HEAD 
 FLOW MODEL IS TRANSIENT
 FLOW MODEL CONTAINS CONSTANT-HEAD CELLS


 MAXIMUM STEPSIZE DURING WHICH ANY PARTICLE CANNOT MOVE MORE THAN ONE CELL
 =  5.441    (WHEN MIN. R.F.=1)  AT K=   4, I=   1, J=  48

 MAXIMUM STEPSIZE WHICH MEETS STABILITY CRITERION OF THE ADVECTION TERM
 (FOR PURE FINITE-DIFFERENCE OPTION, MIXELM=0) 
 =  3.734    (WHEN MIN. R.F.=1)  AT K=   2, I=   1, J=  41


 TOTAL NUMBER OF POINT SOURCES/SINKS PRESENT IN THE FLOW MODEL =    62

 MAXIMUM STEPSIZE WHICH MEETS STABILITY CRITERION OF THE SINK & SOURCE TERM
 =  1172.    (WHEN MIN. R.F.=1)  AT K=   2, I=   1, J= 120

 MAXIMUM STEPSIZE WHICH MEETS STABILITY CRITERION OF THE DISPERSION TERM
 =  20.29    (WHEN MIN. R.F.=1)  AT K=   1, I=   1, J=  31
     1 CALLS TO GCG PACKAGE FOR TRANSPORT TIME STEP   4 IN FLOW TIME STEP 287 STRESS PERIOD   1
     4 TOTAL ITERATIONS
  MAXIMUM CONCENTRATION CHANGES FOR EACH ITERATION:
  MAX. CHANGE LAYER,ROW,COL MAX. CHANGE LAYER,ROW,COL MAX. CHANGE LAYER,ROW,COL MAX. CHANGE LAYER,ROW,COL MAX. CHANGE LAYER,ROW,COL
 ------------------------------------------------------------------------------------------------------------------------------------
   0.1041E-01 (  2,  1, 77)  0.1415E-03 (  2,  1, 77)  0.2756E-05 (  2,  1, 78)  0.5670E-07 (  3,  1, 78)


                                          ================================================
                                                         FROM TIME =   2870.0     TO    2880.0    

 
 SOLVING FOR HEAD 
 FLOW MODEL IS TRANSIENT
 FLOW MODEL CONTAINS CONSTANT-HEAD CELLS


 MAXIMUM STEPSIZE DURING WHICH ANY PARTICLE CANNOT MOVE MORE THAN ONE CELL
 =  5.401    (WHEN MIN. R.F.=1)  AT K=   4, I=   1, J=  48

 MAXIMUM STEPSIZE WHICH MEETS STABILITY CRITERION OF THE ADVECTION TERM
 (FOR PURE FINITE-DIFFERENCE OPTION, MIXELM=0) 
 =  3.740    (WHEN MIN. R.F.=1)  AT K=   2, I=   1, J=  41


 TOTAL NUMBER OF POINT SOURCES/SINKS PRESENT IN THE FLOW MODEL =    62

 MAXIMUM STEPSIZE WHICH MEETS STABILITY CRITERION OF THE SINK & SOURCE TERM
 =  1584.    (WHEN MIN. R.F.=1)  AT K=   2, I=   1, J= 120

 MAXIMUM STEPSIZE WHICH MEETS STABILITY CRITERION OF THE DISPERSION TERM
 =  20.29    (WHEN MIN. R.F.=1)  AT K=   1, I=   1, J=  31


     1 CALLS TO GCG PACKAGE FOR TRANSPORT TIME STEP   1 IN FLOW TIME STEP 288 STRESS PERIOD   1
     6 TOTAL ITERATIONS

 NO OUTPUT CONTROL FOR STRESS PERIOD    1   TIME STEP 288
 
 SOLVING FOR HEAD 
 FLOW MODEL IS TRANSIENT
 FLOW MODEL CONTAINS CONSTANT-HEAD CELLS


 MAXIMUM STEPSIZE DURING WHICH ANY PARTICLE CANNOT MOVE MORE THAN ONE CELL
 =  5.294    (WHEN MIN. R.F.=1)  AT K=   4, I=   1, J=  48

 MAXIMUM STEPSIZE WHICH MEETS STABILITY CRITERION OF THE ADVECTION TERM
 (FOR PURE FINITE-DIFFERENCE OPTION, MIXELM=0) 
 =  3.863    (WHEN MIN. R.F.=1)  AT K=   2, I=   1, J=  41


 TOTAL NUMBER OF POINT SOURCES/SINKS PRESENT IN THE FLOW MODEL =    62

 MAXIMUM STEPSIZE WHICH MEETS STABILITY CRITERION OF THE SINK & SOURCE TERM
 =  1177.    (WHEN MIN. R.F.=1)  AT K=   2, I=   1, J= 120

 MAXIMUM STEPSIZE WHICH MEETS STABILITY CRITERION OF THE DISPERSION TERM
 =  20.29    (WHEN MIN. R.F.=1)  AT K=   1, I=   1, J=  31
     1 CALLS TO GCG PACKAGE FOR TRANSPORT TIME STEP   2 IN FLOW TIME STEP 288 STRESS PERIOD   1
     6 TOTAL ITERATIONS
 
 SOLVING FOR HEAD 
 FLOW MODEL IS TRANSIENT
 FLOW MODEL CONTAINS CONSTANT-HEAD CELLS


 MAXIMUM STEPSIZE DURING WHICH ANY PARTICLE CANNOT MOVE MORE THAN ONE CELL
 =  5.222    (WHEN MIN. R.F.=1)  AT K=   4, I=   1, J=  48

 MAXIMUM STEPSIZE WHICH MEETS STABILITY CRITERION OF THE ADVECTION TERM
 (FOR PURE FINITE-DIFFERENCE OPTION, MIXELM=0) 
 =  3.963    (WHEN MIN. R.F.=1)  AT K=   2, I=   1, J=  42


 TOTAL NUMBER OF POINT SOURCES/SINKS PRESENT IN THE FLOW MODEL =    62

 MAXIMUM STEPSIZE WHICH MEETS STABILITY CRITERION OF THE SINK & SOURCE TERM
 =  1058.    (WHEN MIN. R.F.=1)  AT K=   2, I=   1, J= 120

 MAXIMUM STEPSIZE WHICH MEETS STABILITY CRITERION OF THE DISPERSION TERM
 =  20.29    (WHEN MIN. R.F.=1)  AT K=   1, I=   1, J=  31
     1 CALLS TO GCG PACKAGE FOR TRANSPORT TIME STEP   3 IN FLOW TIME STEP 288 STRESS PERIOD   1
     6 TOTAL ITERATIONS
 
 SOLVING FOR HEAD 
 FLOW MODEL IS TRANSIENT
 FLOW MODEL CONTAINS CONSTANT-HEAD CELLS


 MAXIMUM STEPSIZE DURING WHICH ANY PARTICLE CANNOT MOVE MORE THAN ONE CELL
 =  5.183    (WHEN MIN. R.F.=1)  AT K=   4, I=   1, J=  48

 MAXIMUM STEPSIZE WHICH MEETS STABILITY CRITERION OF THE ADVECTION TERM
 (FOR PURE FINITE-DIFFERENCE OPTION, MIXELM=0) 
 =  3.733    (WHEN MIN. R.F.=1)  AT K=   2, I=   1, J=  42


 TOTAL NUMBER OF POINT SOURCES/SINKS PRESENT IN THE FLOW MODEL =    62

 MAXIMUM STEPSIZE WHICH MEETS STABILITY CRITERION OF THE SINK & SOURCE TERM
 =  1109.    (WHEN MIN. R.F.=1)  AT K=   2, I=   1, J= 120

 MAXIMUM STEPSIZE WHICH MEETS STABILITY CRITERION OF THE DISPERSION TERM
 =  20.29    (WHEN MIN. R.F.=1)  AT K=   1, I=   1, J=  31
     1 CALLS TO GCG PACKAGE FOR TRANSPORT TIME STEP   4 IN FLOW TIME STEP 288 STRESS PERIOD   1
     5 TOTAL ITERATIONS
  MAXIMUM CONCENTRATION CHANGES FOR EACH ITERATION:
  MAX. CHANGE LAYER,ROW,COL MAX. CHANGE LAYER,ROW,COL MAX. CHANGE LAYER,ROW,COL MAX. CHANGE LAYER,ROW,COL MAX. CHANGE LAYER,ROW,COL
 ------------------------------------------------------------------------------------------------------------------------------------
   0.1802E-01 (  2,  1, 83)  0.4611E-03 (  2,  1, 83)  0.1239E-04 (  2,  1, 84)  0.5293E-06 (  3,  1, 45)  0.1521E-07 (  4,  1, 45)


                                          ================================================
                                                         FROM TIME =   2880.0     TO    2890.0    

 
 SOLVING FOR HEAD 
 FLOW MODEL IS TRANSIENT
 FLOW MODEL CONTAINS CONSTANT-HEAD CELLS


 MAXIMUM STEPSIZE DURING WHICH ANY PARTICLE CANNOT MOVE MORE THAN ONE CELL
 =  5.177    (WHEN MIN. R.F.=1)  AT K=   4, I=   1, J=  48

 MAXIMUM STEPSIZE WHICH MEETS STABILITY CRITERION OF THE ADVECTION TERM
 (FOR PURE FINITE-DIFFERENCE OPTION, MIXELM=0) 
 =  3.687    (WHEN MIN. R.F.=1)  AT K=   2, I=   1, J=  42


 TOTAL NUMBER OF POINT SOURCES/SINKS PRESENT IN THE FLOW MODEL =    62

 MAXIMUM STEPSIZE WHICH MEETS STABILITY CRITERION OF THE SINK & SOURCE TERM
 =  1332.    (WHEN MIN. R.F.=1)  AT K=   2, I=   1, J= 120

 MAXIMUM STEPSIZE WHICH MEETS STABILITY CRITERION OF THE DISPERSION TERM
 =  20.29    (WHEN MIN. R.F.=1)  AT K=   1, I=   1, J=  31


     1 CALLS TO GCG PACKAGE FOR TRANSPORT TIME STEP   1 IN FLOW TIME STEP 289 STRESS PERIOD   1
     6 TOTAL ITERATIONS

 NO OUTPUT CONTROL FOR STRESS PERIOD    1   TIME STEP 289
 
 SOLVING FOR HEAD 
 FLOW MODEL IS TRANSIENT
 FLOW MODEL CONTAINS CONSTANT-HEAD CELLS


 MAXIMUM STEPSIZE DURING WHICH ANY PARTICLE CANNOT MOVE MORE THAN ONE CELL
 =  5.187    (WHEN MIN. R.F.=1)  AT K=   4, I=   1, J=  48

 MAXIMUM STEPSIZE WHICH MEETS STABILITY CRITERION OF THE ADVECTION TERM
 (FOR PURE FINITE-DIFFERENCE OPTION, MIXELM=0) 
 =  3.697    (WHEN MIN. R.F.=1)  AT K=   2, I=   1, J=  42


 TOTAL NUMBER OF POINT SOURCES/SINKS PRESENT IN THE FLOW MODEL =    62

 MAXIMUM STEPSIZE WHICH MEETS STABILITY CRITERION OF THE SINK & SOURCE TERM
 =  1208.    (WHEN MIN. R.F.=1)  AT K=   2, I=   1, J= 120

 MAXIMUM STEPSIZE WHICH MEETS STABILITY CRITERION OF THE DISPERSION TERM
 =  20.29    (WHEN MIN. R.F.=1)  AT K=   1, I=   1, J=  31
     1 CALLS TO GCG PACKAGE FOR TRANSPORT TIME STEP   2 IN FLOW TIME STEP 289 STRESS PERIOD   1
     6 TOTAL ITERATIONS
 
 SOLVING FOR HEAD 
 FLOW MODEL IS TRANSIENT
 FLOW MODEL CONTAINS CONSTANT-HEAD CELLS


 MAXIMUM STEPSIZE DURING WHICH ANY PARTICLE CANNOT MOVE MORE THAN ONE CELL
 =  5.225    (WHEN MIN. R.F.=1)  AT K=   4, I=   1, J=  48

 MAXIMUM STEPSIZE WHICH MEETS STABILITY CRITERION OF THE ADVECTION TERM
 (FOR PURE FINITE-DIFFERENCE OPTION, MIXELM=0) 
 =  3.831    (WHEN MIN. R.F.=1)  AT K=   2, I=   1, J=  42


 TOTAL NUMBER OF POINT SOURCES/SINKS PRESENT IN THE FLOW MODEL =    62

 MAXIMUM STEPSIZE WHICH MEETS STABILITY CRITERION OF THE SINK & SOURCE TERM
 =  1362.    (WHEN MIN. R.F.=1)  AT K=   2, I=   1, J= 120

 MAXIMUM STEPSIZE WHICH MEETS STABILITY CRITERION OF THE DISPERSION TERM
 =  20.29    (WHEN MIN. R.F.=1)  AT K=   1, I=   1, J=  31
     1 CALLS TO GCG PACKAGE FOR TRANSPORT TIME STEP   3 IN FLOW TIME STEP 289 STRESS PERIOD   1
     6 TOTAL ITERATIONS
 
 SOLVING FOR HEAD 
 FLOW MODEL IS TRANSIENT
 FLOW MODEL CONTAINS CONSTANT-HEAD CELLS


 MAXIMUM STEPSIZE DURING WHICH ANY PARTICLE CANNOT MOVE MORE THAN ONE CELL
 =  5.290    (WHEN MIN. R.F.=1)  AT K=   5, I=   1, J=  48

 MAXIMUM STEPSIZE WHICH MEETS STABILITY CRITERION OF THE ADVECTION TERM
 (FOR PURE FINITE-DIFFERENCE OPTION, MIXELM=0) 
 =  3.948    (WHEN MIN. R.F.=1)  AT K=   2, I=   1, J=  81


 TOTAL NUMBER OF POINT SOURCES/SINKS PRESENT IN THE FLOW MODEL =    62

 MAXIMUM STEPSIZE WHICH MEETS STABILITY CRITERION OF THE SINK & SOURCE TERM
 =  1385.    (WHEN MIN. R.F.=1)  AT K=   2, I=   1, J= 120

 MAXIMUM STEPSIZE WHICH MEETS STABILITY CRITERION OF THE DISPERSION TERM
 =  20.29    (WHEN MIN. R.F.=1)  AT K=   1, I=   1, J=  31
     1 CALLS TO GCG PACKAGE FOR TRANSPORT TIME STEP   4 IN FLOW TIME STEP 289 STRESS PERIOD   1
     5 TOTAL ITERATIONS
  MAXIMUM CONCENTRATION CHANGES FOR EACH ITERATION:
  MAX. CHANGE LAYER,ROW,COL MAX. CHANGE LAYER,ROW,COL MAX. CHANGE LAYER,ROW,COL MAX. CHANGE LAYER,ROW,COL MAX. CHANGE LAYER,ROW,COL
 ------------------------------------------------------------------------------------------------------------------------------------
   0.1909E-01 (  2,  1, 76)  0.5085E-03 (  2,  1, 82)  0.1542E-04 (  2,  1, 83)  0.5956E-06 (  3,  1, 77)  0.1643E-07 (  4,  1, 51)


                                          ================================================
                                                         FROM TIME =   2890.0     TO    2900.0    

 
 SOLVING FOR HEAD 
 FLOW MODEL IS TRANSIENT
 FLOW MODEL CONTAINS CONSTANT-HEAD CELLS


 MAXIMUM STEPSIZE DURING WHICH ANY PARTICLE CANNOT MOVE MORE THAN ONE CELL
 =  5.316    (WHEN MIN. R.F.=1)  AT K=   5, I=   1, J=  48

 MAXIMUM STEPSIZE WHICH MEETS STABILITY CRITERION OF THE ADVECTION TERM
 (FOR PURE FINITE-DIFFERENCE OPTION, MIXELM=0) 
 =  3.875    (WHEN MIN. R.F.=1)  AT K=   2, I=   1, J=  81


 TOTAL NUMBER OF POINT SOURCES/SINKS PRESENT IN THE FLOW MODEL =    62

 MAXIMUM STEPSIZE WHICH MEETS STABILITY CRITERION OF THE SINK & SOURCE TERM
 =  1748.    (WHEN MIN. R.F.=1)  AT K=   2, I=   1, J= 120

 MAXIMUM STEPSIZE WHICH MEETS STABILITY CRITERION OF THE DISPERSION TERM
 =  20.29    (WHEN MIN. R.F.=1)  AT K=   1, I=   1, J=  31


     1 CALLS TO GCG PACKAGE FOR TRANSPORT TIME STEP   1 IN FLOW TIME STEP 290 STRESS PERIOD   1
     6 TOTAL ITERATIONS

 NO OUTPUT CONTROL FOR STRESS PERIOD    1   TIME STEP 290
 
 SOLVING FOR HEAD 
 FLOW MODEL IS TRANSIENT
 FLOW MODEL CONTAINS CONSTANT-HEAD CELLS


 MAXIMUM STEPSIZE DURING WHICH ANY PARTICLE CANNOT MOVE MORE THAN ONE CELL
 =  5.377    (WHEN MIN. R.F.=1)  AT K=   5, I=   1, J=  48

 MAXIMUM STEPSIZE WHICH MEETS STABILITY CRITERION OF THE ADVECTION TERM
 (FOR PURE FINITE-DIFFERENCE OPTION, MIXELM=0) 
 =  3.728    (WHEN MIN. R.F.=1)  AT K=   2, I=   1, J=  43


 TOTAL NUMBER OF POINT SOURCES/SINKS PRESENT IN THE FLOW MODEL =    62

 MAXIMUM STEPSIZE WHICH MEETS STABILITY CRITERION OF THE SINK & SOURCE TERM
 =  1518.    (WHEN MIN. R.F.=1)  AT K=   2, I=   1, J= 120

 MAXIMUM STEPSIZE WHICH MEETS STABILITY CRITERION OF THE DISPERSION TERM
 =  20.29    (WHEN MIN. R.F.=1)  AT K=   1, I=   1, J=  31
     1 CALLS TO GCG PACKAGE FOR TRANSPORT TIME STEP   2 IN FLOW TIME STEP 290 STRESS PERIOD   1
     6 TOTAL ITERATIONS
 
 SOLVING FOR HEAD 
 FLOW MODEL IS TRANSIENT
 FLOW MODEL CONTAINS CONSTANT-HEAD CELLS


 MAXIMUM STEPSIZE DURING WHICH ANY PARTICLE CANNOT MOVE MORE THAN ONE CELL
 =  5.463    (WHEN MIN. R.F.=1)  AT K=   5, I=   1, J=  48

 MAXIMUM STEPSIZE WHICH MEETS STABILITY CRITERION OF THE ADVECTION TERM
 (FOR PURE FINITE-DIFFERENCE OPTION, MIXELM=0) 
 =  3.724    (WHEN MIN. R.F.=1)  AT K=   2, I=   1, J=  43


 TOTAL NUMBER OF POINT SOURCES/SINKS PRESENT IN THE FLOW MODEL =    62

 MAXIMUM STEPSIZE WHICH MEETS STABILITY CRITERION OF THE SINK & SOURCE TERM
 =  1567.    (WHEN MIN. R.F.=1)  AT K=   2, I=   1, J= 120

 MAXIMUM STEPSIZE WHICH MEETS STABILITY CRITERION OF THE DISPERSION TERM
 =  20.29    (WHEN MIN. R.F.=1)  AT K=   1, I=   1, J=  31
     1 CALLS TO GCG PACKAGE FOR TRANSPORT TIME STEP   3 IN FLOW TIME STEP 290 STRESS PERIOD   1
     6 TOTAL ITERATIONS
 
 SOLVING FOR HEAD 
 FLOW MODEL IS TRANSIENT
 FLOW MODEL CONTAINS CONSTANT-HEAD CELLS


 MAXIMUM STEPSIZE DURING WHICH ANY PARTICLE CANNOT MOVE MORE THAN ONE CELL
 =  5.372    (WHEN MIN. R.F.=1)  AT K=   4, I=   1, J=  74

 MAXIMUM STEPSIZE WHICH MEETS STABILITY CRITERION OF THE ADVECTION TERM
 (FOR PURE FINITE-DIFFERENCE OPTION, MIXELM=0) 
 =  3.712    (WHEN MIN. R.F.=1)  AT K=   2, I=   1, J=  80


 TOTAL NUMBER OF POINT SOURCES/SINKS PRESENT IN THE FLOW MODEL =    62

 MAXIMUM STEPSIZE WHICH MEETS STABILITY CRITERION OF THE SINK & SOURCE TERM
 =  1832.    (WHEN MIN. R.F.=1)  AT K=   2, I=   1, J= 120

 MAXIMUM STEPSIZE WHICH MEETS STABILITY CRITERION OF THE DISPERSION TERM
 =  20.29    (WHEN MIN. R.F.=1)  AT K=   1, I=   1, J=  31
     1 CALLS TO GCG PACKAGE FOR TRANSPORT TIME STEP   4 IN FLOW TIME STEP 290 STRESS PERIOD   1
     5 TOTAL ITERATIONS
  MAXIMUM CONCENTRATION CHANGES FOR EACH ITERATION:
  MAX. CHANGE LAYER,ROW,COL MAX. CHANGE LAYER,ROW,COL MAX. CHANGE LAYER,ROW,COL MAX. CHANGE LAYER,ROW,COL MAX. CHANGE LAYER,ROW,COL
 ------------------------------------------------------------------------------------------------------------------------------------
   0.1483E-01 (  2,  1, 82)  0.2837E-03 (  2,  1, 81)  0.8174E-05 (  3,  1, 44)  0.2352E-06 (  3,  1, 46)  0.6890E-08 (  3,  1, 33)


                                          ================================================
                                                         FROM TIME =   2900.0     TO    2910.0    

 
 SOLVING FOR HEAD 
 FLOW MODEL IS TRANSIENT
 FLOW MODEL CONTAINS CONSTANT-HEAD CELLS


 MAXIMUM STEPSIZE DURING WHICH ANY PARTICLE CANNOT MOVE MORE THAN ONE CELL
 =  5.339    (WHEN MIN. R.F.=1)  AT K=   4, I=   1, J=  74

 MAXIMUM STEPSIZE WHICH MEETS STABILITY CRITERION OF THE ADVECTION TERM
 (FOR PURE FINITE-DIFFERENCE OPTION, MIXELM=0) 
 =  3.641    (WHEN MIN. R.F.=1)  AT K=   2, I=   1, J=  80


 TOTAL NUMBER OF POINT SOURCES/SINKS PRESENT IN THE FLOW MODEL =    62

 MAXIMUM STEPSIZE WHICH MEETS STABILITY CRITERION OF THE SINK & SOURCE TERM
 =  2826.    (WHEN MIN. R.F.=1)  AT K=   2, I=   1, J= 120

 MAXIMUM STEPSIZE WHICH MEETS STABILITY CRITERION OF THE DISPERSION TERM
 =  20.29    (WHEN MIN. R.F.=1)  AT K=   1, I=   1, J=  31


     1 CALLS TO GCG PACKAGE FOR TRANSPORT TIME STEP   1 IN FLOW TIME STEP 291 STRESS PERIOD   1
     6 TOTAL ITERATIONS

 NO OUTPUT CONTROL FOR STRESS PERIOD    1   TIME STEP 291
 
 SOLVING FOR HEAD 
 FLOW MODEL IS TRANSIENT
 FLOW MODEL CONTAINS CONSTANT-HEAD CELLS


 MAXIMUM STEPSIZE DURING WHICH ANY PARTICLE CANNOT MOVE MORE THAN ONE CELL
 =  5.338    (WHEN MIN. R.F.=1)  AT K=   4, I=   1, J=  74

 MAXIMUM STEPSIZE WHICH MEETS STABILITY CRITERION OF THE ADVECTION TERM
 (FOR PURE FINITE-DIFFERENCE OPTION, MIXELM=0) 
 =  3.581    (WHEN MIN. R.F.=1)  AT K=   2, I=   1, J=  80


 TOTAL NUMBER OF POINT SOURCES/SINKS PRESENT IN THE FLOW MODEL =    62

 MAXIMUM STEPSIZE WHICH MEETS STABILITY CRITERION OF THE SINK & SOURCE TERM
 =  2420.    (WHEN MIN. R.F.=1)  AT K=   2, I=   1, J= 120

 MAXIMUM STEPSIZE WHICH MEETS STABILITY CRITERION OF THE DISPERSION TERM
 =  20.29    (WHEN MIN. R.F.=1)  AT K=   1, I=   1, J=  31
     1 CALLS TO GCG PACKAGE FOR TRANSPORT TIME STEP   2 IN FLOW TIME STEP 291 STRESS PERIOD   1
     6 TOTAL ITERATIONS
 
 SOLVING FOR HEAD 
 FLOW MODEL IS TRANSIENT
 FLOW MODEL CONTAINS CONSTANT-HEAD CELLS


 MAXIMUM STEPSIZE DURING WHICH ANY PARTICLE CANNOT MOVE MORE THAN ONE CELL
 =  5.436    (WHEN MIN. R.F.=1)  AT K=   4, I=   1, J=  74

 MAXIMUM STEPSIZE WHICH MEETS STABILITY CRITERION OF THE ADVECTION TERM
 (FOR PURE FINITE-DIFFERENCE OPTION, MIXELM=0) 
 =  3.695    (WHEN MIN. R.F.=1)  AT K=   2, I=   1, J=  80


 TOTAL NUMBER OF POINT SOURCES/SINKS PRESENT IN THE FLOW MODEL =    62

 MAXIMUM STEPSIZE WHICH MEETS STABILITY CRITERION OF THE SINK & SOURCE TERM
 =  2939.    (WHEN MIN. R.F.=1)  AT K=   2, I=   1, J= 120

 MAXIMUM STEPSIZE WHICH MEETS STABILITY CRITERION OF THE DISPERSION TERM
 =  20.29    (WHEN MIN. R.F.=1)  AT K=   1, I=   1, J=  31
     1 CALLS TO GCG PACKAGE FOR TRANSPORT TIME STEP   3 IN FLOW TIME STEP 291 STRESS PERIOD   1
     6 TOTAL ITERATIONS
 
 SOLVING FOR HEAD 
 FLOW MODEL IS TRANSIENT
 FLOW MODEL CONTAINS CONSTANT-HEAD CELLS


 MAXIMUM STEPSIZE DURING WHICH ANY PARTICLE CANNOT MOVE MORE THAN ONE CELL
 =  5.494    (WHEN MIN. R.F.=1)  AT K=   5, I=   1, J=  74

 MAXIMUM STEPSIZE WHICH MEETS STABILITY CRITERION OF THE ADVECTION TERM
 (FOR PURE FINITE-DIFFERENCE OPTION, MIXELM=0) 
 =  3.838    (WHEN MIN. R.F.=1)  AT K=   2, I=   1, J=  44


 TOTAL NUMBER OF POINT SOURCES/SINKS PRESENT IN THE FLOW MODEL =    62

 MAXIMUM STEPSIZE WHICH MEETS STABILITY CRITERION OF THE SINK & SOURCE TERM
 =  3333.    (WHEN MIN. R.F.=1)  AT K=   2, I=   1, J= 120

 MAXIMUM STEPSIZE WHICH MEETS STABILITY CRITERION OF THE DISPERSION TERM
 =  20.29    (WHEN MIN. R.F.=1)  AT K=   1, I=   1, J=  31
     1 CALLS TO GCG PACKAGE FOR TRANSPORT TIME STEP   4 IN FLOW TIME STEP 291 STRESS PERIOD   1
     5 TOTAL ITERATIONS
  MAXIMUM CONCENTRATION CHANGES FOR EACH ITERATION:
  MAX. CHANGE LAYER,ROW,COL MAX. CHANGE LAYER,ROW,COL MAX. CHANGE LAYER,ROW,COL MAX. CHANGE LAYER,ROW,COL MAX. CHANGE LAYER,ROW,COL
 ------------------------------------------------------------------------------------------------------------------------------------
   0.2229E-01 (  2,  1, 81)  0.6337E-03 (  2,  1, 79)  0.2813E-04 (  3,  1, 79)  0.1024E-05 (  3,  1, 76)  0.3239E-07 (  4,  1, 78)


                                          ================================================
                                                         FROM TIME =   2910.0     TO    2920.0    

 
 SOLVING FOR HEAD 
 FLOW MODEL IS TRANSIENT
 FLOW MODEL CONTAINS CONSTANT-HEAD CELLS


 MAXIMUM STEPSIZE DURING WHICH ANY PARTICLE CANNOT MOVE MORE THAN ONE CELL
 =  5.564    (WHEN MIN. R.F.=1)  AT K=   5, I=   1, J=  74

 MAXIMUM STEPSIZE WHICH MEETS STABILITY CRITERION OF THE ADVECTION TERM
 (FOR PURE FINITE-DIFFERENCE OPTION, MIXELM=0) 
 =  3.697    (WHEN MIN. R.F.=1)  AT K=   2, I=   1, J=  79


 TOTAL NUMBER OF POINT SOURCES/SINKS PRESENT IN THE FLOW MODEL =    62

 MAXIMUM STEPSIZE WHICH MEETS STABILITY CRITERION OF THE SINK & SOURCE TERM
 =  6639.    (WHEN MIN. R.F.=1)  AT K=   2, I=   1, J= 120

 MAXIMUM STEPSIZE WHICH MEETS STABILITY CRITERION OF THE DISPERSION TERM
 =  20.29    (WHEN MIN. R.F.=1)  AT K=   1, I=   1, J=  31


     1 CALLS TO GCG PACKAGE FOR TRANSPORT TIME STEP   1 IN FLOW TIME STEP 292 STRESS PERIOD   1
     6 TOTAL ITERATIONS

 NO OUTPUT CONTROL FOR STRESS PERIOD    1   TIME STEP 292
 
 SOLVING FOR HEAD 
 FLOW MODEL IS TRANSIENT
 FLOW MODEL CONTAINS CONSTANT-HEAD CELLS


 MAXIMUM STEPSIZE DURING WHICH ANY PARTICLE CANNOT MOVE MORE THAN ONE CELL
 =  5.723    (WHEN MIN. R.F.=1)  AT K=   5, I=   1, J=  74

 MAXIMUM STEPSIZE WHICH MEETS STABILITY CRITERION OF THE ADVECTION TERM
 (FOR PURE FINITE-DIFFERENCE OPTION, MIXELM=0) 
 =  3.540    (WHEN MIN. R.F.=1)  AT K=   2, I=   1, J=  79


 TOTAL NUMBER OF POINT SOURCES/SINKS PRESENT IN THE FLOW MODEL =    62

 MAXIMUM STEPSIZE WHICH MEETS STABILITY CRITERION OF THE SINK & SOURCE TERM
 =  5720.    (WHEN MIN. R.F.=1)  AT K=   2, I=   1, J= 120

 MAXIMUM STEPSIZE WHICH MEETS STABILITY CRITERION OF THE DISPERSION TERM
 =  20.29    (WHEN MIN. R.F.=1)  AT K=   1, I=   1, J=  31
     1 CALLS TO GCG PACKAGE FOR TRANSPORT TIME STEP   2 IN FLOW TIME STEP 292 STRESS PERIOD   1
     6 TOTAL ITERATIONS
 
 SOLVING FOR HEAD 
 FLOW MODEL IS TRANSIENT
 FLOW MODEL CONTAINS CONSTANT-HEAD CELLS


 MAXIMUM STEPSIZE DURING WHICH ANY PARTICLE CANNOT MOVE MORE THAN ONE CELL
 =  5.793    (WHEN MIN. R.F.=1)  AT K=   6, I=   1, J=  74

 MAXIMUM STEPSIZE WHICH MEETS STABILITY CRITERION OF THE ADVECTION TERM
 (FOR PURE FINITE-DIFFERENCE OPTION, MIXELM=0) 
 =  3.535    (WHEN MIN. R.F.=1)  AT K=   2, I=   1, J=  79


 TOTAL NUMBER OF POINT SOURCES/SINKS PRESENT IN THE FLOW MODEL =    62

 MAXIMUM STEPSIZE WHICH MEETS STABILITY CRITERION OF THE SINK & SOURCE TERM
 = 0.3879E+05(WHEN MIN. R.F.=1)  AT K=   2, I=   1, J= 120

 MAXIMUM STEPSIZE WHICH MEETS STABILITY CRITERION OF THE DISPERSION TERM
 =  20.29    (WHEN MIN. R.F.=1)  AT K=   1, I=   1, J=  31
     1 CALLS TO GCG PACKAGE FOR TRANSPORT TIME STEP   3 IN FLOW TIME STEP 292 STRESS PERIOD   1
     6 TOTAL ITERATIONS
 
 SOLVING FOR HEAD 
 FLOW MODEL IS TRANSIENT
 FLOW MODEL CONTAINS CONSTANT-HEAD CELLS


 MAXIMUM STEPSIZE DURING WHICH ANY PARTICLE CANNOT MOVE MORE THAN ONE CELL
 =  5.797    (WHEN MIN. R.F.=1)  AT K=  28, I=   1, J=  54

 MAXIMUM STEPSIZE WHICH MEETS STABILITY CRITERION OF THE ADVECTION TERM
 (FOR PURE FINITE-DIFFERENCE OPTION, MIXELM=0) 
 =  3.664    (WHEN MIN. R.F.=1)  AT K=   2, I=   1, J=  79


 TOTAL NUMBER OF POINT SOURCES/SINKS PRESENT IN THE FLOW MODEL =    62

 MAXIMUM STEPSIZE WHICH MEETS STABILITY CRITERION OF THE SINK & SOURCE TERM
 = 0.2156E+05(WHEN MIN. R.F.=1)  AT K=   2, I=   1, J= 120

 MAXIMUM STEPSIZE WHICH MEETS STABILITY CRITERION OF THE DISPERSION TERM
 =  20.29    (WHEN MIN. R.F.=1)  AT K=   1, I=   1, J=  31
     1 CALLS TO GCG PACKAGE FOR TRANSPORT TIME STEP   4 IN FLOW TIME STEP 292 STRESS PERIOD   1
     5 TOTAL ITERATIONS
  MAXIMUM CONCENTRATION CHANGES FOR EACH ITERATION:
  MAX. CHANGE LAYER,ROW,COL MAX. CHANGE LAYER,ROW,COL MAX. CHANGE LAYER,ROW,COL MAX. CHANGE LAYER,ROW,COL MAX. CHANGE LAYER,ROW,COL
 ------------------------------------------------------------------------------------------------------------------------------------
   0.2163E-01 (  2,  1, 80)  0.5138E-03 (  2,  1, 78)  0.2472E-04 (  3,  1, 78)  0.1038E-05 (  3,  1, 76)  0.3264E-07 (  4,  1, 76)


                                          ================================================
                                                         FROM TIME =   2920.0     TO    2930.0    

 
 SOLVING FOR HEAD 
 FLOW MODEL IS TRANSIENT
 FLOW MODEL CONTAINS CONSTANT-HEAD CELLS


 MAXIMUM STEPSIZE DURING WHICH ANY PARTICLE CANNOT MOVE MORE THAN ONE CELL
 =  5.803    (WHEN MIN. R.F.=1)  AT K=  28, I=   1, J=  54

 MAXIMUM STEPSIZE WHICH MEETS STABILITY CRITERION OF THE ADVECTION TERM
 (FOR PURE FINITE-DIFFERENCE OPTION, MIXELM=0) 
 =  3.870    (WHEN MIN. R.F.=1)  AT K=   2, I=   1, J=  79


 TOTAL NUMBER OF POINT SOURCES/SINKS PRESENT IN THE FLOW MODEL =    62

 MAXIMUM STEPSIZE WHICH MEETS STABILITY CRITERION OF THE SINK & SOURCE TERM
 = 0.1000E+31(WHEN MIN. R.F.=1)  AT K=   0, I=   0, J=   0

 MAXIMUM STEPSIZE WHICH MEETS STABILITY CRITERION OF THE DISPERSION TERM
 =  20.29    (WHEN MIN. R.F.=1)  AT K=   1, I=   1, J=  31


     1 CALLS TO GCG PACKAGE FOR TRANSPORT TIME STEP   1 IN FLOW TIME STEP 293 STRESS PERIOD   1
     6 TOTAL ITERATIONS

 NO OUTPUT CONTROL FOR STRESS PERIOD    1   TIME STEP 293
 
 SOLVING FOR HEAD 
 FLOW MODEL IS TRANSIENT
 FLOW MODEL CONTAINS CONSTANT-HEAD CELLS


 MAXIMUM STEPSIZE DURING WHICH ANY PARTICLE CANNOT MOVE MORE THAN ONE CELL
 =  5.806    (WHEN MIN. R.F.=1)  AT K=  28, I=   1, J=  54

 MAXIMUM STEPSIZE WHICH MEETS STABILITY CRITERION OF THE ADVECTION TERM
 (FOR PURE FINITE-DIFFERENCE OPTION, MIXELM=0) 
 =  3.845    (WHEN MIN. R.F.=1)  AT K=   2, I=   1, J=  78


 TOTAL NUMBER OF POINT SOURCES/SINKS PRESENT IN THE FLOW MODEL =    62

 MAXIMUM STEPSIZE WHICH MEETS STABILITY CRITERION OF THE SINK & SOURCE TERM
 = 0.3745E+05(WHEN MIN. R.F.=1)  AT K=   2, I=   1, J= 120

 MAXIMUM STEPSIZE WHICH MEETS STABILITY CRITERION OF THE DISPERSION TERM
 =  20.29    (WHEN MIN. R.F.=1)  AT K=   1, I=   1, J=  31
     1 CALLS TO GCG PACKAGE FOR TRANSPORT TIME STEP   2 IN FLOW TIME STEP 293 STRESS PERIOD   1
     6 TOTAL ITERATIONS
 
 SOLVING FOR HEAD 
 FLOW MODEL IS TRANSIENT
 FLOW MODEL CONTAINS CONSTANT-HEAD CELLS


 MAXIMUM STEPSIZE DURING WHICH ANY PARTICLE CANNOT MOVE MORE THAN ONE CELL
 =  5.806    (WHEN MIN. R.F.=1)  AT K=  28, I=   1, J=  54

 MAXIMUM STEPSIZE WHICH MEETS STABILITY CRITERION OF THE ADVECTION TERM
 (FOR PURE FINITE-DIFFERENCE OPTION, MIXELM=0) 
 =  3.654    (WHEN MIN. R.F.=1)  AT K=   2, I=   1, J=  78


 TOTAL NUMBER OF POINT SOURCES/SINKS PRESENT IN THE FLOW MODEL =    62

 MAXIMUM STEPSIZE WHICH MEETS STABILITY CRITERION OF THE SINK & SOURCE TERM
 = 0.1000E+31(WHEN MIN. R.F.=1)  AT K=   0, I=   0, J=   0

 MAXIMUM STEPSIZE WHICH MEETS STABILITY CRITERION OF THE DISPERSION TERM
 =  20.29    (WHEN MIN. R.F.=1)  AT K=   1, I=   1, J=  31
     1 CALLS TO GCG PACKAGE FOR TRANSPORT TIME STEP   3 IN FLOW TIME STEP 293 STRESS PERIOD   1
     6 TOTAL ITERATIONS
 
 SOLVING FOR HEAD 
 FLOW MODEL IS TRANSIENT
 FLOW MODEL CONTAINS CONSTANT-HEAD CELLS


 MAXIMUM STEPSIZE DURING WHICH ANY PARTICLE CANNOT MOVE MORE THAN ONE CELL
 =  5.807    (WHEN MIN. R.F.=1)  AT K=  28, I=   1, J=  54

 MAXIMUM STEPSIZE WHICH MEETS STABILITY CRITERION OF THE ADVECTION TERM
 (FOR PURE FINITE-DIFFERENCE OPTION, MIXELM=0) 
 =  3.616    (WHEN MIN. R.F.=1)  AT K=   2, I=   1, J=  78


 TOTAL NUMBER OF POINT SOURCES/SINKS PRESENT IN THE FLOW MODEL =    62

 MAXIMUM STEPSIZE WHICH MEETS STABILITY CRITERION OF THE SINK & SOURCE TERM
 = 0.1000E+31(WHEN MIN. R.F.=1)  AT K=   0, I=   0, J=   0

 MAXIMUM STEPSIZE WHICH MEETS STABILITY CRITERION OF THE DISPERSION TERM
 =  20.29    (WHEN MIN. R.F.=1)  AT K=   1, I=   1, J=  31
     1 CALLS TO GCG PACKAGE FOR TRANSPORT TIME STEP   4 IN FLOW TIME STEP 293 STRESS PERIOD   1
     5 TOTAL ITERATIONS
  MAXIMUM CONCENTRATION CHANGES FOR EACH ITERATION:
  MAX. CHANGE LAYER,ROW,COL MAX. CHANGE LAYER,ROW,COL MAX. CHANGE LAYER,ROW,COL MAX. CHANGE LAYER,ROW,COL MAX. CHANGE LAYER,ROW,COL
 ------------------------------------------------------------------------------------------------------------------------------------
   0.1757E-01 (  2,  1, 79)  0.4036E-03 (  2,  1, 79)  0.1187E-04 (  2,  1, 80)  0.3987E-06 (  3,  1, 80)  0.1049E-07 (  3,  1, 88)


                                          ================================================
                                                         FROM TIME =   2930.0     TO    2940.0    

 
 SOLVING FOR HEAD 
 FLOW MODEL IS TRANSIENT
 FLOW MODEL CONTAINS CONSTANT-HEAD CELLS


 MAXIMUM STEPSIZE DURING WHICH ANY PARTICLE CANNOT MOVE MORE THAN ONE CELL
 =  5.813    (WHEN MIN. R.F.=1)  AT K=  28, I=   1, J=  54

 MAXIMUM STEPSIZE WHICH MEETS STABILITY CRITERION OF THE ADVECTION TERM
 (FOR PURE FINITE-DIFFERENCE OPTION, MIXELM=0) 
 =  3.653    (WHEN MIN. R.F.=1)  AT K=   2, I=   1, J=  78


 TOTAL NUMBER OF POINT SOURCES/SINKS PRESENT IN THE FLOW MODEL =    62

 MAXIMUM STEPSIZE WHICH MEETS STABILITY CRITERION OF THE SINK & SOURCE TERM
 = 0.1000E+31(WHEN MIN. R.F.=1)  AT K=   0, I=   0, J=   0

 MAXIMUM STEPSIZE WHICH MEETS STABILITY CRITERION OF THE DISPERSION TERM
 =  20.29    (WHEN MIN. R.F.=1)  AT K=   1, I=   1, J=  31


     1 CALLS TO GCG PACKAGE FOR TRANSPORT TIME STEP   1 IN FLOW TIME STEP 294 STRESS PERIOD   1
     6 TOTAL ITERATIONS

 NO OUTPUT CONTROL FOR STRESS PERIOD    1   TIME STEP 294
 
 SOLVING FOR HEAD 
 FLOW MODEL IS TRANSIENT
 FLOW MODEL CONTAINS CONSTANT-HEAD CELLS


 MAXIMUM STEPSIZE DURING WHICH ANY PARTICLE CANNOT MOVE MORE THAN ONE CELL
 =  5.816    (WHEN MIN. R.F.=1)  AT K=  28, I=   1, J=  54

 MAXIMUM STEPSIZE WHICH MEETS STABILITY CRITERION OF THE ADVECTION TERM
 (FOR PURE FINITE-DIFFERENCE OPTION, MIXELM=0) 
 =  3.812    (WHEN MIN. R.F.=1)  AT K=   2, I=   1, J=  78


 TOTAL NUMBER OF POINT SOURCES/SINKS PRESENT IN THE FLOW MODEL =    62

 MAXIMUM STEPSIZE WHICH MEETS STABILITY CRITERION OF THE SINK & SOURCE TERM
 = 0.1000E+31(WHEN MIN. R.F.=1)  AT K=   0, I=   0, J=   0

 MAXIMUM STEPSIZE WHICH MEETS STABILITY CRITERION OF THE DISPERSION TERM
 =  20.29    (WHEN MIN. R.F.=1)  AT K=   1, I=   1, J=  31
     1 CALLS TO GCG PACKAGE FOR TRANSPORT TIME STEP   2 IN FLOW TIME STEP 294 STRESS PERIOD   1
     6 TOTAL ITERATIONS
 
 SOLVING FOR HEAD 
 FLOW MODEL IS TRANSIENT
 FLOW MODEL CONTAINS CONSTANT-HEAD CELLS


 MAXIMUM STEPSIZE DURING WHICH ANY PARTICLE CANNOT MOVE MORE THAN ONE CELL
 =  5.819    (WHEN MIN. R.F.=1)  AT K=  28, I=   1, J=  54

 MAXIMUM STEPSIZE WHICH MEETS STABILITY CRITERION OF THE ADVECTION TERM
 (FOR PURE FINITE-DIFFERENCE OPTION, MIXELM=0) 
 =  4.167    (WHEN MIN. R.F.=1)  AT K=   2, I=   1, J=  78


 TOTAL NUMBER OF POINT SOURCES/SINKS PRESENT IN THE FLOW MODEL =    62

 MAXIMUM STEPSIZE WHICH MEETS STABILITY CRITERION OF THE SINK & SOURCE TERM
 = 0.1000E+31(WHEN MIN. R.F.=1)  AT K=   0, I=   0, J=   0

 MAXIMUM STEPSIZE WHICH MEETS STABILITY CRITERION OF THE DISPERSION TERM
 =  20.29    (WHEN MIN. R.F.=1)  AT K=   1, I=   1, J=  31
     1 CALLS TO GCG PACKAGE FOR TRANSPORT TIME STEP   3 IN FLOW TIME STEP 294 STRESS PERIOD   1
     6 TOTAL ITERATIONS
 
 SOLVING FOR HEAD 
 FLOW MODEL IS TRANSIENT
 FLOW MODEL CONTAINS CONSTANT-HEAD CELLS


 MAXIMUM STEPSIZE DURING WHICH ANY PARTICLE CANNOT MOVE MORE THAN ONE CELL
 =  5.820    (WHEN MIN. R.F.=1)  AT K=  28, I=   1, J=  54

 MAXIMUM STEPSIZE WHICH MEETS STABILITY CRITERION OF THE ADVECTION TERM
 (FOR PURE FINITE-DIFFERENCE OPTION, MIXELM=0) 
 =  3.908    (WHEN MIN. R.F.=1)  AT K=   2, I=   1, J=  77


 TOTAL NUMBER OF POINT SOURCES/SINKS PRESENT IN THE FLOW MODEL =    62

 MAXIMUM STEPSIZE WHICH MEETS STABILITY CRITERION OF THE SINK & SOURCE TERM
 = 0.1000E+31(WHEN MIN. R.F.=1)  AT K=   0, I=   0, J=   0

 MAXIMUM STEPSIZE WHICH MEETS STABILITY CRITERION OF THE DISPERSION TERM
 =  20.29    (WHEN MIN. R.F.=1)  AT K=   1, I=   1, J=  31
     1 CALLS TO GCG PACKAGE FOR TRANSPORT TIME STEP   4 IN FLOW TIME STEP 294 STRESS PERIOD   1
     5 TOTAL ITERATIONS
  MAXIMUM CONCENTRATION CHANGES FOR EACH ITERATION:
  MAX. CHANGE LAYER,ROW,COL MAX. CHANGE LAYER,ROW,COL MAX. CHANGE LAYER,ROW,COL MAX. CHANGE LAYER,ROW,COL MAX. CHANGE LAYER,ROW,COL
 ------------------------------------------------------------------------------------------------------------------------------------
   0.1825E-01 (  2,  1, 31)  0.5879E-03 (  2,  1, 77)  0.1717E-04 (  3,  1, 77)  0.5359E-06 (  3,  1, 32)  0.2267E-07 (  5,  1, 80)


                                          ================================================
                                                         FROM TIME =   2940.0     TO    2950.0    

 
 SOLVING FOR HEAD 
 FLOW MODEL IS TRANSIENT
 FLOW MODEL CONTAINS CONSTANT-HEAD CELLS


 MAXIMUM STEPSIZE DURING WHICH ANY PARTICLE CANNOT MOVE MORE THAN ONE CELL
 =  5.827    (WHEN MIN. R.F.=1)  AT K=  28, I=   1, J=  54

 MAXIMUM STEPSIZE WHICH MEETS STABILITY CRITERION OF THE ADVECTION TERM
 (FOR PURE FINITE-DIFFERENCE OPTION, MIXELM=0) 
 =  3.817    (WHEN MIN. R.F.=1)  AT K=   2, I=   1, J=  77


 TOTAL NUMBER OF POINT SOURCES/SINKS PRESENT IN THE FLOW MODEL =    62

 MAXIMUM STEPSIZE WHICH MEETS STABILITY CRITERION OF THE SINK & SOURCE TERM
 = 0.1000E+31(WHEN MIN. R.F.=1)  AT K=   0, I=   0, J=   0

 MAXIMUM STEPSIZE WHICH MEETS STABILITY CRITERION OF THE DISPERSION TERM
 =  20.29    (WHEN MIN. R.F.=1)  AT K=   1, I=   1, J=  31


     1 CALLS TO GCG PACKAGE FOR TRANSPORT TIME STEP   1 IN FLOW TIME STEP 295 STRESS PERIOD   1
     6 TOTAL ITERATIONS

 NO OUTPUT CONTROL FOR STRESS PERIOD    1   TIME STEP 295
 
 SOLVING FOR HEAD 
 FLOW MODEL IS TRANSIENT
 FLOW MODEL CONTAINS CONSTANT-HEAD CELLS


 MAXIMUM STEPSIZE DURING WHICH ANY PARTICLE CANNOT MOVE MORE THAN ONE CELL
 =  5.829    (WHEN MIN. R.F.=1)  AT K=  28, I=   1, J=  54

 MAXIMUM STEPSIZE WHICH MEETS STABILITY CRITERION OF THE ADVECTION TERM
 (FOR PURE FINITE-DIFFERENCE OPTION, MIXELM=0) 
 =  3.760    (WHEN MIN. R.F.=1)  AT K=   2, I=   1, J=  77


 TOTAL NUMBER OF POINT SOURCES/SINKS PRESENT IN THE FLOW MODEL =    62

 MAXIMUM STEPSIZE WHICH MEETS STABILITY CRITERION OF THE SINK & SOURCE TERM
 = 0.1000E+31(WHEN MIN. R.F.=1)  AT K=   0, I=   0, J=   0

 MAXIMUM STEPSIZE WHICH MEETS STABILITY CRITERION OF THE DISPERSION TERM
 =  20.29    (WHEN MIN. R.F.=1)  AT K=   1, I=   1, J=  31
     1 CALLS TO GCG PACKAGE FOR TRANSPORT TIME STEP   2 IN FLOW TIME STEP 295 STRESS PERIOD   1
     6 TOTAL ITERATIONS
 
 SOLVING FOR HEAD 
 FLOW MODEL IS TRANSIENT
 FLOW MODEL CONTAINS CONSTANT-HEAD CELLS


 MAXIMUM STEPSIZE DURING WHICH ANY PARTICLE CANNOT MOVE MORE THAN ONE CELL
 =  5.831    (WHEN MIN. R.F.=1)  AT K=  28, I=   1, J=  54

 MAXIMUM STEPSIZE WHICH MEETS STABILITY CRITERION OF THE ADVECTION TERM
 (FOR PURE FINITE-DIFFERENCE OPTION, MIXELM=0) 
 =  3.815    (WHEN MIN. R.F.=1)  AT K=   2, I=   1, J=  77


 TOTAL NUMBER OF POINT SOURCES/SINKS PRESENT IN THE FLOW MODEL =    62

 MAXIMUM STEPSIZE WHICH MEETS STABILITY CRITERION OF THE SINK & SOURCE TERM
 = 0.1000E+31(WHEN MIN. R.F.=1)  AT K=   0, I=   0, J=   0

 MAXIMUM STEPSIZE WHICH MEETS STABILITY CRITERION OF THE DISPERSION TERM
 =  20.29    (WHEN MIN. R.F.=1)  AT K=   1, I=   1, J=  31
     1 CALLS TO GCG PACKAGE FOR TRANSPORT TIME STEP   3 IN FLOW TIME STEP 295 STRESS PERIOD   1
     6 TOTAL ITERATIONS
 
 SOLVING FOR HEAD 
 FLOW MODEL IS TRANSIENT
 FLOW MODEL CONTAINS CONSTANT-HEAD CELLS


 MAXIMUM STEPSIZE DURING WHICH ANY PARTICLE CANNOT MOVE MORE THAN ONE CELL
 =  5.834    (WHEN MIN. R.F.=1)  AT K=  28, I=   1, J=  54

 MAXIMUM STEPSIZE WHICH MEETS STABILITY CRITERION OF THE ADVECTION TERM
 (FOR PURE FINITE-DIFFERENCE OPTION, MIXELM=0) 
 =  3.999    (WHEN MIN. R.F.=1)  AT K=   2, I=   1, J=  77


 TOTAL NUMBER OF POINT SOURCES/SINKS PRESENT IN THE FLOW MODEL =    62

 MAXIMUM STEPSIZE WHICH MEETS STABILITY CRITERION OF THE SINK & SOURCE TERM
 = 0.1000E+31(WHEN MIN. R.F.=1)  AT K=   0, I=   0, J=   0

 MAXIMUM STEPSIZE WHICH MEETS STABILITY CRITERION OF THE DISPERSION TERM
 =  20.29    (WHEN MIN. R.F.=1)  AT K=   1, I=   1, J=  31
     1 CALLS TO GCG PACKAGE FOR TRANSPORT TIME STEP   4 IN FLOW TIME STEP 295 STRESS PERIOD   1
     5 TOTAL ITERATIONS
  MAXIMUM CONCENTRATION CHANGES FOR EACH ITERATION:
  MAX. CHANGE LAYER,ROW,COL MAX. CHANGE LAYER,ROW,COL MAX. CHANGE LAYER,ROW,COL MAX. CHANGE LAYER,ROW,COL MAX. CHANGE LAYER,ROW,COL
 ------------------------------------------------------------------------------------------------------------------------------------
   0.1764E-01 (  2,  1, 78)  0.3603E-03 (  2,  1, 75)  0.1038E-04 (  2,  1, 79)  0.3554E-06 (  3,  1, 79)  0.9652E-08 (  4,  1, 75)


                                          ================================================
                                                         FROM TIME =   2950.0     TO    2960.0    

 
 SOLVING FOR HEAD 
 FLOW MODEL IS TRANSIENT
 FLOW MODEL CONTAINS CONSTANT-HEAD CELLS


 MAXIMUM STEPSIZE DURING WHICH ANY PARTICLE CANNOT MOVE MORE THAN ONE CELL
 =  5.841    (WHEN MIN. R.F.=1)  AT K=  28, I=   1, J=  54

 MAXIMUM STEPSIZE WHICH MEETS STABILITY CRITERION OF THE ADVECTION TERM
 (FOR PURE FINITE-DIFFERENCE OPTION, MIXELM=0) 
 =  4.148    (WHEN MIN. R.F.=1)  AT K=   2, I=   1, J=  40


 TOTAL NUMBER OF POINT SOURCES/SINKS PRESENT IN THE FLOW MODEL =    62

 MAXIMUM STEPSIZE WHICH MEETS STABILITY CRITERION OF THE SINK & SOURCE TERM
 = 0.1000E+31(WHEN MIN. R.F.=1)  AT K=   0, I=   0, J=   0

 MAXIMUM STEPSIZE WHICH MEETS STABILITY CRITERION OF THE DISPERSION TERM
 =  20.29    (WHEN MIN. R.F.=1)  AT K=   1, I=   1, J=  31


     1 CALLS TO GCG PACKAGE FOR TRANSPORT TIME STEP   1 IN FLOW TIME STEP 296 STRESS PERIOD   1
     6 TOTAL ITERATIONS

 NO OUTPUT CONTROL FOR STRESS PERIOD    1   TIME STEP 296
 
 SOLVING FOR HEAD 
 FLOW MODEL IS TRANSIENT
 FLOW MODEL CONTAINS CONSTANT-HEAD CELLS


 MAXIMUM STEPSIZE DURING WHICH ANY PARTICLE CANNOT MOVE MORE THAN ONE CELL
 =  5.843    (WHEN MIN. R.F.=1)  AT K=  28, I=   1, J=  54

 MAXIMUM STEPSIZE WHICH MEETS STABILITY CRITERION OF THE ADVECTION TERM
 (FOR PURE FINITE-DIFFERENCE OPTION, MIXELM=0) 
 =  4.019    (WHEN MIN. R.F.=1)  AT K=   2, I=   1, J=  40


 TOTAL NUMBER OF POINT SOURCES/SINKS PRESENT IN THE FLOW MODEL =    62

 MAXIMUM STEPSIZE WHICH MEETS STABILITY CRITERION OF THE SINK & SOURCE TERM
 = 0.1063E+05(WHEN MIN. R.F.=1)  AT K=   2, I=   1, J= 120

 MAXIMUM STEPSIZE WHICH MEETS STABILITY CRITERION OF THE DISPERSION TERM
 =  20.29    (WHEN MIN. R.F.=1)  AT K=   1, I=   1, J=  31
     1 CALLS TO GCG PACKAGE FOR TRANSPORT TIME STEP   2 IN FLOW TIME STEP 296 STRESS PERIOD   1
     6 TOTAL ITERATIONS
 
 SOLVING FOR HEAD 
 FLOW MODEL IS TRANSIENT
 FLOW MODEL CONTAINS CONSTANT-HEAD CELLS


 MAXIMUM STEPSIZE DURING WHICH ANY PARTICLE CANNOT MOVE MORE THAN ONE CELL
 =  5.844    (WHEN MIN. R.F.=1)  AT K=  28, I=   1, J=  54

 MAXIMUM STEPSIZE WHICH MEETS STABILITY CRITERION OF THE ADVECTION TERM
 (FOR PURE FINITE-DIFFERENCE OPTION, MIXELM=0) 
 =  4.144    (WHEN MIN. R.F.=1)  AT K=   2, I=   1, J=  40


 TOTAL NUMBER OF POINT SOURCES/SINKS PRESENT IN THE FLOW MODEL =    62

 MAXIMUM STEPSIZE WHICH MEETS STABILITY CRITERION OF THE SINK & SOURCE TERM
 = 0.1388E+05(WHEN MIN. R.F.=1)  AT K=   2, I=   1, J= 120

 MAXIMUM STEPSIZE WHICH MEETS STABILITY CRITERION OF THE DISPERSION TERM
 =  20.29    (WHEN MIN. R.F.=1)  AT K=   1, I=   1, J=  31
     1 CALLS TO GCG PACKAGE FOR TRANSPORT TIME STEP   3 IN FLOW TIME STEP 296 STRESS PERIOD   1
     6 TOTAL ITERATIONS
 
 SOLVING FOR HEAD 
 FLOW MODEL IS TRANSIENT
 FLOW MODEL CONTAINS CONSTANT-HEAD CELLS


 MAXIMUM STEPSIZE DURING WHICH ANY PARTICLE CANNOT MOVE MORE THAN ONE CELL
 =  5.840    (WHEN MIN. R.F.=1)  AT K=   4, I=   1, J=  48

 MAXIMUM STEPSIZE WHICH MEETS STABILITY CRITERION OF THE ADVECTION TERM
 (FOR PURE FINITE-DIFFERENCE OPTION, MIXELM=0) 
 =  4.050    (WHEN MIN. R.F.=1)  AT K=   2, I=   1, J=  41


 TOTAL NUMBER OF POINT SOURCES/SINKS PRESENT IN THE FLOW MODEL =    62

 MAXIMUM STEPSIZE WHICH MEETS STABILITY CRITERION OF THE SINK & SOURCE TERM
 = 0.1239E+05(WHEN MIN. R.F.=1)  AT K=   2, I=   1, J=   1

 MAXIMUM STEPSIZE WHICH MEETS STABILITY CRITERION OF THE DISPERSION TERM
 =  20.29    (WHEN MIN. R.F.=1)  AT K=   1, I=   1, J=  31
     1 CALLS TO GCG PACKAGE FOR TRANSPORT TIME STEP   4 IN FLOW TIME STEP 296 STRESS PERIOD   1
     4 TOTAL ITERATIONS
  MAXIMUM CONCENTRATION CHANGES FOR EACH ITERATION:
  MAX. CHANGE LAYER,ROW,COL MAX. CHANGE LAYER,ROW,COL MAX. CHANGE LAYER,ROW,COL MAX. CHANGE LAYER,ROW,COL MAX. CHANGE LAYER,ROW,COL
 ------------------------------------------------------------------------------------------------------------------------------------
   0.9909E-02 (  2,  1, 39)  0.1465E-03 (  2,  1, 76)  0.2562E-05 (  2,  1, 78)  0.5052E-07 ( 29,  1, 26)


                                          ================================================
                                                         FROM TIME =   2960.0     TO    2970.0    

 
 SOLVING FOR HEAD 
 FLOW MODEL IS TRANSIENT
 FLOW MODEL CONTAINS CONSTANT-HEAD CELLS


 MAXIMUM STEPSIZE DURING WHICH ANY PARTICLE CANNOT MOVE MORE THAN ONE CELL
 =  5.783    (WHEN MIN. R.F.=1)  AT K=   4, I=   1, J=  48

 MAXIMUM STEPSIZE WHICH MEETS STABILITY CRITERION OF THE ADVECTION TERM
 (FOR PURE FINITE-DIFFERENCE OPTION, MIXELM=0) 
 =  3.962    (WHEN MIN. R.F.=1)  AT K=   2, I=   1, J=  41


 TOTAL NUMBER OF POINT SOURCES/SINKS PRESENT IN THE FLOW MODEL =    62

 MAXIMUM STEPSIZE WHICH MEETS STABILITY CRITERION OF THE SINK & SOURCE TERM
 = 0.1000E+31(WHEN MIN. R.F.=1)  AT K=   0, I=   0, J=   0

 MAXIMUM STEPSIZE WHICH MEETS STABILITY CRITERION OF THE DISPERSION TERM
 =  20.29    (WHEN MIN. R.F.=1)  AT K=   1, I=   1, J=  31


     1 CALLS TO GCG PACKAGE FOR TRANSPORT TIME STEP   1 IN FLOW TIME STEP 297 STRESS PERIOD   1
     6 TOTAL ITERATIONS

 NO OUTPUT CONTROL FOR STRESS PERIOD    1   TIME STEP 297
 
 SOLVING FOR HEAD 
 FLOW MODEL IS TRANSIENT
 FLOW MODEL CONTAINS CONSTANT-HEAD CELLS


 MAXIMUM STEPSIZE DURING WHICH ANY PARTICLE CANNOT MOVE MORE THAN ONE CELL
 =  5.612    (WHEN MIN. R.F.=1)  AT K=   4, I=   1, J=  48

 MAXIMUM STEPSIZE WHICH MEETS STABILITY CRITERION OF THE ADVECTION TERM
 (FOR PURE FINITE-DIFFERENCE OPTION, MIXELM=0) 
 =  3.777    (WHEN MIN. R.F.=1)  AT K=   2, I=   1, J=  41


 TOTAL NUMBER OF POINT SOURCES/SINKS PRESENT IN THE FLOW MODEL =    62

 MAXIMUM STEPSIZE WHICH MEETS STABILITY CRITERION OF THE SINK & SOURCE TERM
 =  8881.    (WHEN MIN. R.F.=1)  AT K=   2, I=   1, J=   1

 MAXIMUM STEPSIZE WHICH MEETS STABILITY CRITERION OF THE DISPERSION TERM
 =  20.29    (WHEN MIN. R.F.=1)  AT K=   1, I=   1, J=  31
     1 CALLS TO GCG PACKAGE FOR TRANSPORT TIME STEP   2 IN FLOW TIME STEP 297 STRESS PERIOD   1
     6 TOTAL ITERATIONS
 
 SOLVING FOR HEAD 
 FLOW MODEL IS TRANSIENT
 FLOW MODEL CONTAINS CONSTANT-HEAD CELLS


 MAXIMUM STEPSIZE DURING WHICH ANY PARTICLE CANNOT MOVE MORE THAN ONE CELL
 =  5.477    (WHEN MIN. R.F.=1)  AT K=   4, I=   1, J=  48

 MAXIMUM STEPSIZE WHICH MEETS STABILITY CRITERION OF THE ADVECTION TERM
 (FOR PURE FINITE-DIFFERENCE OPTION, MIXELM=0) 
 =  3.768    (WHEN MIN. R.F.=1)  AT K=   2, I=   1, J=  41


 TOTAL NUMBER OF POINT SOURCES/SINKS PRESENT IN THE FLOW MODEL =    62

 MAXIMUM STEPSIZE WHICH MEETS STABILITY CRITERION OF THE SINK & SOURCE TERM
 =  3803.    (WHEN MIN. R.F.=1)  AT K=   2, I=   1, J= 120

 MAXIMUM STEPSIZE WHICH MEETS STABILITY CRITERION OF THE DISPERSION TERM
 =  20.29    (WHEN MIN. R.F.=1)  AT K=   1, I=   1, J=  31
     1 CALLS TO GCG PACKAGE FOR TRANSPORT TIME STEP   3 IN FLOW TIME STEP 297 STRESS PERIOD   1
     6 TOTAL ITERATIONS
 
 SOLVING FOR HEAD 
 FLOW MODEL IS TRANSIENT
 FLOW MODEL CONTAINS CONSTANT-HEAD CELLS


 MAXIMUM STEPSIZE DURING WHICH ANY PARTICLE CANNOT MOVE MORE THAN ONE CELL
 =  5.376    (WHEN MIN. R.F.=1)  AT K=   4, I=   1, J=  48

 MAXIMUM STEPSIZE WHICH MEETS STABILITY CRITERION OF THE ADVECTION TERM
 (FOR PURE FINITE-DIFFERENCE OPTION, MIXELM=0) 
 =  3.929    (WHEN MIN. R.F.=1)  AT K=   2, I=   1, J=  41


 TOTAL NUMBER OF POINT SOURCES/SINKS PRESENT IN THE FLOW MODEL =    62

 MAXIMUM STEPSIZE WHICH MEETS STABILITY CRITERION OF THE SINK & SOURCE TERM
 =  3295.    (WHEN MIN. R.F.=1)  AT K=   2, I=   1, J= 120

 MAXIMUM STEPSIZE WHICH MEETS STABILITY CRITERION OF THE DISPERSION TERM
 =  20.29    (WHEN MIN. R.F.=1)  AT K=   1, I=   1, J=  31
     1 CALLS TO GCG PACKAGE FOR TRANSPORT TIME STEP   4 IN FLOW TIME STEP 297 STRESS PERIOD   1
     5 TOTAL ITERATIONS
  MAXIMUM CONCENTRATION CHANGES FOR EACH ITERATION:
  MAX. CHANGE LAYER,ROW,COL MAX. CHANGE LAYER,ROW,COL MAX. CHANGE LAYER,ROW,COL MAX. CHANGE LAYER,ROW,COL MAX. CHANGE LAYER,ROW,COL
 ------------------------------------------------------------------------------------------------------------------------------------
   0.1323E-01 (  2,  1, 40)  0.2038E-03 (  2,  1, 62)  0.7248E-05 (  3,  1, 42)  0.1557E-06 (  4,  1, 42)  0.3579E-08 (  4,  1, 81)


                                          ================================================
                                                         FROM TIME =   2970.0     TO    2980.0    

 
 SOLVING FOR HEAD 
 FLOW MODEL IS TRANSIENT
 FLOW MODEL CONTAINS CONSTANT-HEAD CELLS


 MAXIMUM STEPSIZE DURING WHICH ANY PARTICLE CANNOT MOVE MORE THAN ONE CELL
 =  5.343    (WHEN MIN. R.F.=1)  AT K=   4, I=   1, J=  48

 MAXIMUM STEPSIZE WHICH MEETS STABILITY CRITERION OF THE ADVECTION TERM
 (FOR PURE FINITE-DIFFERENCE OPTION, MIXELM=0) 
 =  4.070    (WHEN MIN. R.F.=1)  AT K=   2, I=   1, J=  41


 TOTAL NUMBER OF POINT SOURCES/SINKS PRESENT IN THE FLOW MODEL =    62

 MAXIMUM STEPSIZE WHICH MEETS STABILITY CRITERION OF THE SINK & SOURCE TERM
 =  5648.    (WHEN MIN. R.F.=1)  AT K=   2, I=   1, J=   1

 MAXIMUM STEPSIZE WHICH MEETS STABILITY CRITERION OF THE DISPERSION TERM
 =  20.29    (WHEN MIN. R.F.=1)  AT K=   1, I=   1, J=  31


     1 CALLS TO GCG PACKAGE FOR TRANSPORT TIME STEP   1 IN FLOW TIME STEP 298 STRESS PERIOD   1
     6 TOTAL ITERATIONS

 NO OUTPUT CONTROL FOR STRESS PERIOD    1   TIME STEP 298
 
 SOLVING FOR HEAD 
 FLOW MODEL IS TRANSIENT
 FLOW MODEL CONTAINS CONSTANT-HEAD CELLS


 MAXIMUM STEPSIZE DURING WHICH ANY PARTICLE CANNOT MOVE MORE THAN ONE CELL
 =  5.281    (WHEN MIN. R.F.=1)  AT K=   4, I=   1, J=  48

 MAXIMUM STEPSIZE WHICH MEETS STABILITY CRITERION OF THE ADVECTION TERM
 (FOR PURE FINITE-DIFFERENCE OPTION, MIXELM=0) 
 =  3.799    (WHEN MIN. R.F.=1)  AT K=   2, I=   1, J=  42


 TOTAL NUMBER OF POINT SOURCES/SINKS PRESENT IN THE FLOW MODEL =    62

 MAXIMUM STEPSIZE WHICH MEETS STABILITY CRITERION OF THE SINK & SOURCE TERM
 =  2000.    (WHEN MIN. R.F.=1)  AT K=   2, I=   1, J=   1

 MAXIMUM STEPSIZE WHICH MEETS STABILITY CRITERION OF THE DISPERSION TERM
 =  20.29    (WHEN MIN. R.F.=1)  AT K=   1, I=   1, J=  31
     1 CALLS TO GCG PACKAGE FOR TRANSPORT TIME STEP   2 IN FLOW TIME STEP 298 STRESS PERIOD   1
     6 TOTAL ITERATIONS
 
 SOLVING FOR HEAD 
 FLOW MODEL IS TRANSIENT
 FLOW MODEL CONTAINS CONSTANT-HEAD CELLS


 MAXIMUM STEPSIZE DURING WHICH ANY PARTICLE CANNOT MOVE MORE THAN ONE CELL
 =  5.248    (WHEN MIN. R.F.=1)  AT K=   4, I=   1, J=  48

 MAXIMUM STEPSIZE WHICH MEETS STABILITY CRITERION OF THE ADVECTION TERM
 (FOR PURE FINITE-DIFFERENCE OPTION, MIXELM=0) 
 =  3.682    (WHEN MIN. R.F.=1)  AT K=   2, I=   1, J=  42


 TOTAL NUMBER OF POINT SOURCES/SINKS PRESENT IN THE FLOW MODEL =    62

 MAXIMUM STEPSIZE WHICH MEETS STABILITY CRITERION OF THE SINK & SOURCE TERM
 =  1783.    (WHEN MIN. R.F.=1)  AT K=   2, I=   1, J=   1

 MAXIMUM STEPSIZE WHICH MEETS STABILITY CRITERION OF THE DISPERSION TERM
 =  20.29    (WHEN MIN. R.F.=1)  AT K=   1, I=   1, J=  31
     1 CALLS TO GCG PACKAGE FOR TRANSPORT TIME STEP   3 IN FLOW TIME STEP 298 STRESS PERIOD   1
     6 TOTAL ITERATIONS
 
 SOLVING FOR HEAD 
 FLOW MODEL IS TRANSIENT
 FLOW MODEL CONTAINS CONSTANT-HEAD CELLS


 MAXIMUM STEPSIZE DURING WHICH ANY PARTICLE CANNOT MOVE MORE THAN ONE CELL
 =  5.245    (WHEN MIN. R.F.=1)  AT K=   4, I=   1, J=  48

 MAXIMUM STEPSIZE WHICH MEETS STABILITY CRITERION OF THE ADVECTION TERM
 (FOR PURE FINITE-DIFFERENCE OPTION, MIXELM=0) 
 =  3.722    (WHEN MIN. R.F.=1)  AT K=   2, I=   1, J=  42


 TOTAL NUMBER OF POINT SOURCES/SINKS PRESENT IN THE FLOW MODEL =    62

 MAXIMUM STEPSIZE WHICH MEETS STABILITY CRITERION OF THE SINK & SOURCE TERM
 =  1956.    (WHEN MIN. R.F.=1)  AT K=   2, I=   1, J= 120

 MAXIMUM STEPSIZE WHICH MEETS STABILITY CRITERION OF THE DISPERSION TERM
 =  20.29    (WHEN MIN. R.F.=1)  AT K=   1, I=   1, J=  31
     1 CALLS TO GCG PACKAGE FOR TRANSPORT TIME STEP   4 IN FLOW TIME STEP 298 STRESS PERIOD   1
     5 TOTAL ITERATIONS
  MAXIMUM CONCENTRATION CHANGES FOR EACH ITERATION:
  MAX. CHANGE LAYER,ROW,COL MAX. CHANGE LAYER,ROW,COL MAX. CHANGE LAYER,ROW,COL MAX. CHANGE LAYER,ROW,COL MAX. CHANGE LAYER,ROW,COL
 ------------------------------------------------------------------------------------------------------------------------------------
   0.1386E-01 (  2,  1, 83)  0.2232E-03 (  3,  1, 78)  0.6430E-05 (  3,  1, 43)  0.1857E-06 (  3,  1, 45)  0.3829E-08 (  4,  1, 45)


                                          ================================================
                                                         FROM TIME =   2980.0     TO    2990.0    

 
 SOLVING FOR HEAD 
 FLOW MODEL IS TRANSIENT
 FLOW MODEL CONTAINS CONSTANT-HEAD CELLS


 MAXIMUM STEPSIZE DURING WHICH ANY PARTICLE CANNOT MOVE MORE THAN ONE CELL
 =  5.256    (WHEN MIN. R.F.=1)  AT K=   4, I=   1, J=  48

 MAXIMUM STEPSIZE WHICH MEETS STABILITY CRITERION OF THE ADVECTION TERM
 (FOR PURE FINITE-DIFFERENCE OPTION, MIXELM=0) 
 =  3.779    (WHEN MIN. R.F.=1)  AT K=   2, I=   1, J=  42


 TOTAL NUMBER OF POINT SOURCES/SINKS PRESENT IN THE FLOW MODEL =    62

 MAXIMUM STEPSIZE WHICH MEETS STABILITY CRITERION OF THE SINK & SOURCE TERM
 =  3647.    (WHEN MIN. R.F.=1)  AT K=   2, I=   1, J= 120

 MAXIMUM STEPSIZE WHICH MEETS STABILITY CRITERION OF THE DISPERSION TERM
 =  20.29    (WHEN MIN. R.F.=1)  AT K=   1, I=   1, J=  31


     1 CALLS TO GCG PACKAGE FOR TRANSPORT TIME STEP   1 IN FLOW TIME STEP 299 STRESS PERIOD   1
     6 TOTAL ITERATIONS

 NO OUTPUT CONTROL FOR STRESS PERIOD    1   TIME STEP 299
 
 SOLVING FOR HEAD 
 FLOW MODEL IS TRANSIENT
 FLOW MODEL CONTAINS CONSTANT-HEAD CELLS


 MAXIMUM STEPSIZE DURING WHICH ANY PARTICLE CANNOT MOVE MORE THAN ONE CELL
 =  5.297    (WHEN MIN. R.F.=1)  AT K=   4, I=   1, J=  48

 MAXIMUM STEPSIZE WHICH MEETS STABILITY CRITERION OF THE ADVECTION TERM
 (FOR PURE FINITE-DIFFERENCE OPTION, MIXELM=0) 
 =  3.948    (WHEN MIN. R.F.=1)  AT K=   2, I=   1, J=  81


 TOTAL NUMBER OF POINT SOURCES/SINKS PRESENT IN THE FLOW MODEL =    62

 MAXIMUM STEPSIZE WHICH MEETS STABILITY CRITERION OF THE SINK & SOURCE TERM
 =  1858.    (WHEN MIN. R.F.=1)  AT K=   2, I=   1, J= 120

 MAXIMUM STEPSIZE WHICH MEETS STABILITY CRITERION OF THE DISPERSION TERM
 =  20.29    (WHEN MIN. R.F.=1)  AT K=   1, I=   1, J=  31
     1 CALLS TO GCG PACKAGE FOR TRANSPORT TIME STEP   2 IN FLOW TIME STEP 299 STRESS PERIOD   1
     6 TOTAL ITERATIONS
 
 SOLVING FOR HEAD 
 FLOW MODEL IS TRANSIENT
 FLOW MODEL CONTAINS CONSTANT-HEAD CELLS


 MAXIMUM STEPSIZE DURING WHICH ANY PARTICLE CANNOT MOVE MORE THAN ONE CELL
 =  5.363    (WHEN MIN. R.F.=1)  AT K=   4, I=   1, J=  48

 MAXIMUM STEPSIZE WHICH MEETS STABILITY CRITERION OF THE ADVECTION TERM
 (FOR PURE FINITE-DIFFERENCE OPTION, MIXELM=0) 
 =  3.885    (WHEN MIN. R.F.=1)  AT K=   2, I=   1, J=  43


 TOTAL NUMBER OF POINT SOURCES/SINKS PRESENT IN THE FLOW MODEL =    62

 MAXIMUM STEPSIZE WHICH MEETS STABILITY CRITERION OF THE SINK & SOURCE TERM
 =  2103.    (WHEN MIN. R.F.=1)  AT K=   2, I=   1, J=   1

 MAXIMUM STEPSIZE WHICH MEETS STABILITY CRITERION OF THE DISPERSION TERM
 =  20.29    (WHEN MIN. R.F.=1)  AT K=   1, I=   1, J=  31
     1 CALLS TO GCG PACKAGE FOR TRANSPORT TIME STEP   3 IN FLOW TIME STEP 299 STRESS PERIOD   1
     6 TOTAL ITERATIONS
 
 SOLVING FOR HEAD 
 FLOW MODEL IS TRANSIENT
 FLOW MODEL CONTAINS CONSTANT-HEAD CELLS


 MAXIMUM STEPSIZE DURING WHICH ANY PARTICLE CANNOT MOVE MORE THAN ONE CELL
 =  5.338    (WHEN MIN. R.F.=1)  AT K=   4, I=   1, J=  74

 MAXIMUM STEPSIZE WHICH MEETS STABILITY CRITERION OF THE ADVECTION TERM
 (FOR PURE FINITE-DIFFERENCE OPTION, MIXELM=0) 
 =  3.740    (WHEN MIN. R.F.=1)  AT K=   2, I=   1, J=  43


 TOTAL NUMBER OF POINT SOURCES/SINKS PRESENT IN THE FLOW MODEL =    62

 MAXIMUM STEPSIZE WHICH MEETS STABILITY CRITERION OF THE SINK & SOURCE TERM
 =  1912.    (WHEN MIN. R.F.=1)  AT K=   2, I=   1, J=   1

 MAXIMUM STEPSIZE WHICH MEETS STABILITY CRITERION OF THE DISPERSION TERM
 =  20.29    (WHEN MIN. R.F.=1)  AT K=   1, I=   1, J=  31
     1 CALLS TO GCG PACKAGE FOR TRANSPORT TIME STEP   4 IN FLOW TIME STEP 299 STRESS PERIOD   1
     5 TOTAL ITERATIONS
  MAXIMUM CONCENTRATION CHANGES FOR EACH ITERATION:
  MAX. CHANGE LAYER,ROW,COL MAX. CHANGE LAYER,ROW,COL MAX. CHANGE LAYER,ROW,COL MAX. CHANGE LAYER,ROW,COL MAX. CHANGE LAYER,ROW,COL
 ------------------------------------------------------------------------------------------------------------------------------------
   0.1816E-01 (  2,  1, 82)  0.3332E-03 (  3,  1, 77)  0.1163E-04 (  3,  1, 80)  0.3258E-06 (  3,  1, 46)  0.8484E-08 (  3,  1, 33)


                                          ================================================
                                                         FROM TIME =   2990.0     TO    3000.0    

 
 SOLVING FOR HEAD 
 FLOW MODEL IS TRANSIENT
 FLOW MODEL CONTAINS CONSTANT-HEAD CELLS


 MAXIMUM STEPSIZE DURING WHICH ANY PARTICLE CANNOT MOVE MORE THAN ONE CELL
 =  5.266    (WHEN MIN. R.F.=1)  AT K=   4, I=   1, J=  74

 MAXIMUM STEPSIZE WHICH MEETS STABILITY CRITERION OF THE ADVECTION TERM
 (FOR PURE FINITE-DIFFERENCE OPTION, MIXELM=0) 
 =  3.729    (WHEN MIN. R.F.=1)  AT K=   2, I=   1, J=  43


 TOTAL NUMBER OF POINT SOURCES/SINKS PRESENT IN THE FLOW MODEL =    62

 MAXIMUM STEPSIZE WHICH MEETS STABILITY CRITERION OF THE SINK & SOURCE TERM
 =  2316.    (WHEN MIN. R.F.=1)  AT K=   2, I=   1, J= 120

 MAXIMUM STEPSIZE WHICH MEETS STABILITY CRITERION OF THE DISPERSION TERM
 =  20.29    (WHEN MIN. R.F.=1)  AT K=   1, I=   1, J=  31


     1 CALLS TO GCG PACKAGE FOR TRANSPORT TIME STEP   1 IN FLOW TIME STEP 300 STRESS PERIOD   1
     6 TOTAL ITERATIONS

 NO OUTPUT CONTROL FOR STRESS PERIOD    1   TIME STEP 300
 
 SOLVING FOR HEAD 
 FLOW MODEL IS TRANSIENT
 FLOW MODEL CONTAINS CONSTANT-HEAD CELLS


 MAXIMUM STEPSIZE DURING WHICH ANY PARTICLE CANNOT MOVE MORE THAN ONE CELL
 =  5.195    (WHEN MIN. R.F.=1)  AT K=   4, I=   1, J=  74

 MAXIMUM STEPSIZE WHICH MEETS STABILITY CRITERION OF THE ADVECTION TERM
 (FOR PURE FINITE-DIFFERENCE OPTION, MIXELM=0) 
 =  3.727    (WHEN MIN. R.F.=1)  AT K=   2, I=   1, J=  80


 TOTAL NUMBER OF POINT SOURCES/SINKS PRESENT IN THE FLOW MODEL =    62

 MAXIMUM STEPSIZE WHICH MEETS STABILITY CRITERION OF THE SINK & SOURCE TERM
 =  1721.    (WHEN MIN. R.F.=1)  AT K=   2, I=   1, J= 120

 MAXIMUM STEPSIZE WHICH MEETS STABILITY CRITERION OF THE DISPERSION TERM
 =  20.29    (WHEN MIN. R.F.=1)  AT K=   1, I=   1, J=  31
     1 CALLS TO GCG PACKAGE FOR TRANSPORT TIME STEP   2 IN FLOW TIME STEP 300 STRESS PERIOD   1
     6 TOTAL ITERATIONS
 
 SOLVING FOR HEAD 
 FLOW MODEL IS TRANSIENT
 FLOW MODEL CONTAINS CONSTANT-HEAD CELLS


 MAXIMUM STEPSIZE DURING WHICH ANY PARTICLE CANNOT MOVE MORE THAN ONE CELL
 =  5.205    (WHEN MIN. R.F.=1)  AT K=   4, I=   1, J=  74

 MAXIMUM STEPSIZE WHICH MEETS STABILITY CRITERION OF THE ADVECTION TERM
 (FOR PURE FINITE-DIFFERENCE OPTION, MIXELM=0) 
 =  3.623    (WHEN MIN. R.F.=1)  AT K=   2, I=   1, J=  80


 TOTAL NUMBER OF POINT SOURCES/SINKS PRESENT IN THE FLOW MODEL =    62

 MAXIMUM STEPSIZE WHICH MEETS STABILITY CRITERION OF THE SINK & SOURCE TERM
 =  1922.    (WHEN MIN. R.F.=1)  AT K=   2, I=   1, J= 120

 MAXIMUM STEPSIZE WHICH MEETS STABILITY CRITERION OF THE DISPERSION TERM
 =  20.29    (WHEN MIN. R.F.=1)  AT K=   1, I=   1, J=  31
     1 CALLS TO GCG PACKAGE FOR TRANSPORT TIME STEP   3 IN FLOW TIME STEP 300 STRESS PERIOD   1
     5 TOTAL ITERATIONS



 >>>>>>>>>>>>>>>>>>>>>>>>>>>>>>>>>>>>>>>>>>>>>>>>>>>>>>>FOR COMPONENT NO. 01<<<<<<<<<<<<<<<<<<<<<<<<<<<<<<<<<<<<<<<<<<<<<<<<<<<<<<<


                                            -------------------------------------------
                                                      TRANSPORT STEP NO.    3
                                            -------------------------------------------

 TOTAL ELAPSED TIME SINCE BEGINNING OF SIMULATION =   2996.900    D   
 .....................................................................

                     CUMULATIVE MASS BUDGETS AT END OF TRANSPORT STEP    3, TIME STEP  300, STRESS PERIOD    1
                     ------------------------------------------------------------------------------------------

                                                             IN                           OUT
                                                      ----------------             ----------------
                               CONSTANT CONCENTRATION:    1979415.                   -1064602.    
                                        CONSTANT HEAD:    0.000000                   -34.73370    
                               MASS STOR (FLOW MODEL):    213.4971                   -391.1691    
                                MASS STORAGE (SOLUTE):    3077077.                   -3991678.    
                            ---------------------------------------------------------------------------
                                              [TOTAL]:    5056705.     KG            -5056705.     KG  

                                                          NET (IN - OUT):  -0.4197573E-03
                                                   DISCREPANCY (PERCENT):  -0.8301005E-08
 
 SOLVING FOR HEAD 
 FLOW MODEL IS TRANSIENT
 FLOW MODEL CONTAINS CONSTANT-HEAD CELLS


 MAXIMUM STEPSIZE DURING WHICH ANY PARTICLE CANNOT MOVE MORE THAN ONE CELL
 =  5.244    (WHEN MIN. R.F.=1)  AT K=   4, I=   1, J=  74

 MAXIMUM STEPSIZE WHICH MEETS STABILITY CRITERION OF THE ADVECTION TERM
 (FOR PURE FINITE-DIFFERENCE OPTION, MIXELM=0) 
 =  3.628    (WHEN MIN. R.F.=1)  AT K=   2, I=   1, J=  80


 TOTAL NUMBER OF POINT SOURCES/SINKS PRESENT IN THE FLOW MODEL =    62

 MAXIMUM STEPSIZE WHICH MEETS STABILITY CRITERION OF THE SINK & SOURCE TERM
 =  4981.    (WHEN MIN. R.F.=1)  AT K=   2, I=   1, J= 120

 MAXIMUM STEPSIZE WHICH MEETS STABILITY CRITERION OF THE DISPERSION TERM
 =  20.29    (WHEN MIN. R.F.=1)  AT K=   1, I=   1, J=  31
     1 CALLS TO GCG PACKAGE FOR TRANSPORT TIME STEP   4 IN FLOW TIME STEP 300 STRESS PERIOD   1
     6 TOTAL ITERATIONS
 
 SOLVING FOR HEAD 
 FLOW MODEL IS TRANSIENT
 FLOW MODEL CONTAINS CONSTANT-HEAD CELLS


 MAXIMUM STEPSIZE DURING WHICH ANY PARTICLE CANNOT MOVE MORE THAN ONE CELL
 =  5.330    (WHEN MIN. R.F.=1)  AT K=   5, I=   1, J=  74

 MAXIMUM STEPSIZE WHICH MEETS STABILITY CRITERION OF THE ADVECTION TERM
 (FOR PURE FINITE-DIFFERENCE OPTION, MIXELM=0) 
 =  3.753    (WHEN MIN. R.F.=1)  AT K=   2, I=   1, J=  80


 TOTAL NUMBER OF POINT SOURCES/SINKS PRESENT IN THE FLOW MODEL =    62

 MAXIMUM STEPSIZE WHICH MEETS STABILITY CRITERION OF THE SINK & SOURCE TERM
 =  3858.    (WHEN MIN. R.F.=1)  AT K=   2, I=   1, J= 120

 MAXIMUM STEPSIZE WHICH MEETS STABILITY CRITERION OF THE DISPERSION TERM
 =  20.29    (WHEN MIN. R.F.=1)  AT K=   1, I=   1, J=  31
     1 CALLS TO GCG PACKAGE FOR TRANSPORT TIME STEP   5 IN FLOW TIME STEP 300 STRESS PERIOD   1
     4 TOTAL ITERATIONS
  MAXIMUM CONCENTRATION CHANGES FOR EACH ITERATION:
  MAX. CHANGE LAYER,ROW,COL MAX. CHANGE LAYER,ROW,COL MAX. CHANGE LAYER,ROW,COL MAX. CHANGE LAYER,ROW,COL MAX. CHANGE LAYER,ROW,COL
 ------------------------------------------------------------------------------------------------------------------------------------
   0.4939E-02 (  2,  1, 81)  0.2608E-04 (  2,  1, 81)  0.3076E-06 (  3,  1, 79)  0.2390E-08 (  4,  1, 79)


                                          ================================================
                                                         FROM TIME =   3000.0     TO    3010.0    

 
 SOLVING FOR HEAD 
 FLOW MODEL IS TRANSIENT
 FLOW MODEL CONTAINS CONSTANT-HEAD CELLS


 MAXIMUM STEPSIZE DURING WHICH ANY PARTICLE CANNOT MOVE MORE THAN ONE CELL
 =  5.340    (WHEN MIN. R.F.=1)  AT K=   5, I=   1, J=  74

 MAXIMUM STEPSIZE WHICH MEETS STABILITY CRITERION OF THE ADVECTION TERM
 (FOR PURE FINITE-DIFFERENCE OPTION, MIXELM=0) 
 =  3.799    (WHEN MIN. R.F.=1)  AT K=   2, I=   1, J=  80


 TOTAL NUMBER OF POINT SOURCES/SINKS PRESENT IN THE FLOW MODEL =    62

 MAXIMUM STEPSIZE WHICH MEETS STABILITY CRITERION OF THE SINK & SOURCE TERM
 = 0.2622E+05(WHEN MIN. R.F.=1)  AT K=   2, I=   1, J= 120

 MAXIMUM STEPSIZE WHICH MEETS STABILITY CRITERION OF THE DISPERSION TERM
 =  20.29    (WHEN MIN. R.F.=1)  AT K=   1, I=   1, J=  31


     1 CALLS TO GCG PACKAGE FOR TRANSPORT TIME STEP   1 IN FLOW TIME STEP 301 STRESS PERIOD   1
     6 TOTAL ITERATIONS

 NO OUTPUT CONTROL FOR STRESS PERIOD    1   TIME STEP 301
 
 SOLVING FOR HEAD 
 FLOW MODEL IS TRANSIENT
 FLOW MODEL CONTAINS CONSTANT-HEAD CELLS


 MAXIMUM STEPSIZE DURING WHICH ANY PARTICLE CANNOT MOVE MORE THAN ONE CELL
 =  5.430    (WHEN MIN. R.F.=1)  AT K=   5, I=   1, J=  74

 MAXIMUM STEPSIZE WHICH MEETS STABILITY CRITERION OF THE ADVECTION TERM
 (FOR PURE FINITE-DIFFERENCE OPTION, MIXELM=0) 
 =  3.783    (WHEN MIN. R.F.=1)  AT K=   2, I=   1, J=  79


 TOTAL NUMBER OF POINT SOURCES/SINKS PRESENT IN THE FLOW MODEL =    62

 MAXIMUM STEPSIZE WHICH MEETS STABILITY CRITERION OF THE SINK & SOURCE TERM
 =  3151.    (WHEN MIN. R.F.=1)  AT K=   2, I=   1, J= 120

 MAXIMUM STEPSIZE WHICH MEETS STABILITY CRITERION OF THE DISPERSION TERM
 =  20.29    (WHEN MIN. R.F.=1)  AT K=   1, I=   1, J=  31
     1 CALLS TO GCG PACKAGE FOR TRANSPORT TIME STEP   2 IN FLOW TIME STEP 301 STRESS PERIOD   1
     6 TOTAL ITERATIONS
 
 SOLVING FOR HEAD 
 FLOW MODEL IS TRANSIENT
 FLOW MODEL CONTAINS CONSTANT-HEAD CELLS


 MAXIMUM STEPSIZE DURING WHICH ANY PARTICLE CANNOT MOVE MORE THAN ONE CELL
 =  5.572    (WHEN MIN. R.F.=1)  AT K=   5, I=   1, J=  74

 MAXIMUM STEPSIZE WHICH MEETS STABILITY CRITERION OF THE ADVECTION TERM
 (FOR PURE FINITE-DIFFERENCE OPTION, MIXELM=0) 
 =  3.580    (WHEN MIN. R.F.=1)  AT K=   2, I=   1, J=  79


 TOTAL NUMBER OF POINT SOURCES/SINKS PRESENT IN THE FLOW MODEL =    62

 MAXIMUM STEPSIZE WHICH MEETS STABILITY CRITERION OF THE SINK & SOURCE TERM
 =  3076.    (WHEN MIN. R.F.=1)  AT K=   2, I=   1, J= 120

 MAXIMUM STEPSIZE WHICH MEETS STABILITY CRITERION OF THE DISPERSION TERM
 =  20.29    (WHEN MIN. R.F.=1)  AT K=   1, I=   1, J=  31
     1 CALLS TO GCG PACKAGE FOR TRANSPORT TIME STEP   3 IN FLOW TIME STEP 301 STRESS PERIOD   1
     6 TOTAL ITERATIONS
 
 SOLVING FOR HEAD 
 FLOW MODEL IS TRANSIENT
 FLOW MODEL CONTAINS CONSTANT-HEAD CELLS


 MAXIMUM STEPSIZE DURING WHICH ANY PARTICLE CANNOT MOVE MORE THAN ONE CELL
 =  5.670    (WHEN MIN. R.F.=1)  AT K=   6, I=   1, J=  74

 MAXIMUM STEPSIZE WHICH MEETS STABILITY CRITERION OF THE ADVECTION TERM
 (FOR PURE FINITE-DIFFERENCE OPTION, MIXELM=0) 
 =  3.534    (WHEN MIN. R.F.=1)  AT K=   2, I=   1, J=  79


 TOTAL NUMBER OF POINT SOURCES/SINKS PRESENT IN THE FLOW MODEL =    62

 MAXIMUM STEPSIZE WHICH MEETS STABILITY CRITERION OF THE SINK & SOURCE TERM
 =  3400.    (WHEN MIN. R.F.=1)  AT K=   2, I=   1, J= 120

 MAXIMUM STEPSIZE WHICH MEETS STABILITY CRITERION OF THE DISPERSION TERM
 =  20.29    (WHEN MIN. R.F.=1)  AT K=   1, I=   1, J=  31
     1 CALLS TO GCG PACKAGE FOR TRANSPORT TIME STEP   4 IN FLOW TIME STEP 301 STRESS PERIOD   1
     5 TOTAL ITERATIONS
  MAXIMUM CONCENTRATION CHANGES FOR EACH ITERATION:
  MAX. CHANGE LAYER,ROW,COL MAX. CHANGE LAYER,ROW,COL MAX. CHANGE LAYER,ROW,COL MAX. CHANGE LAYER,ROW,COL MAX. CHANGE LAYER,ROW,COL
 ------------------------------------------------------------------------------------------------------------------------------------
   0.1859E-01 (  2,  1, 80)  0.4246E-03 (  2,  1, 80)  0.1453E-04 (  3,  1, 78)  0.7685E-06 (  3,  1, 76)  0.2201E-07 (  4,  1, 76)


                                          ================================================
                                                         FROM TIME =   3010.0     TO    3020.0    

 
 SOLVING FOR HEAD 
 FLOW MODEL IS TRANSIENT
 FLOW MODEL CONTAINS CONSTANT-HEAD CELLS


 MAXIMUM STEPSIZE DURING WHICH ANY PARTICLE CANNOT MOVE MORE THAN ONE CELL
 =  5.734    (WHEN MIN. R.F.=1)  AT K=   6, I=   1, J=  74

 MAXIMUM STEPSIZE WHICH MEETS STABILITY CRITERION OF THE ADVECTION TERM
 (FOR PURE FINITE-DIFFERENCE OPTION, MIXELM=0) 
 =  3.575    (WHEN MIN. R.F.=1)  AT K=   2, I=   1, J=  79


 TOTAL NUMBER OF POINT SOURCES/SINKS PRESENT IN THE FLOW MODEL =    62

 MAXIMUM STEPSIZE WHICH MEETS STABILITY CRITERION OF THE SINK & SOURCE TERM
 =  6699.    (WHEN MIN. R.F.=1)  AT K=   2, I=   1, J= 120

 MAXIMUM STEPSIZE WHICH MEETS STABILITY CRITERION OF THE DISPERSION TERM
 =  20.29    (WHEN MIN. R.F.=1)  AT K=   1, I=   1, J=  31


     1 CALLS TO GCG PACKAGE FOR TRANSPORT TIME STEP   1 IN FLOW TIME STEP 302 STRESS PERIOD   1
     6 TOTAL ITERATIONS

 NO OUTPUT CONTROL FOR STRESS PERIOD    1   TIME STEP 302
 
 SOLVING FOR HEAD 
 FLOW MODEL IS TRANSIENT
 FLOW MODEL CONTAINS CONSTANT-HEAD CELLS


 MAXIMUM STEPSIZE DURING WHICH ANY PARTICLE CANNOT MOVE MORE THAN ONE CELL
 =  5.868    (WHEN MIN. R.F.=1)  AT K=   7, I=   1, J=  74

 MAXIMUM STEPSIZE WHICH MEETS STABILITY CRITERION OF THE ADVECTION TERM
 (FOR PURE FINITE-DIFFERENCE OPTION, MIXELM=0) 
 =  3.754    (WHEN MIN. R.F.=1)  AT K=   2, I=   1, J=  79


 TOTAL NUMBER OF POINT SOURCES/SINKS PRESENT IN THE FLOW MODEL =    62

 MAXIMUM STEPSIZE WHICH MEETS STABILITY CRITERION OF THE SINK & SOURCE TERM
 =  4005.    (WHEN MIN. R.F.=1)  AT K=   2, I=   1, J= 120

 MAXIMUM STEPSIZE WHICH MEETS STABILITY CRITERION OF THE DISPERSION TERM
 =  20.29    (WHEN MIN. R.F.=1)  AT K=   1, I=   1, J=  31
     1 CALLS TO GCG PACKAGE FOR TRANSPORT TIME STEP   2 IN FLOW TIME STEP 302 STRESS PERIOD   1
     6 TOTAL ITERATIONS
 
 SOLVING FOR HEAD 
 FLOW MODEL IS TRANSIENT
 FLOW MODEL CONTAINS CONSTANT-HEAD CELLS


 MAXIMUM STEPSIZE DURING WHICH ANY PARTICLE CANNOT MOVE MORE THAN ONE CELL
 =  5.909    (WHEN MIN. R.F.=1)  AT K=  28, I=   1, J=  54

 MAXIMUM STEPSIZE WHICH MEETS STABILITY CRITERION OF THE ADVECTION TERM
 (FOR PURE FINITE-DIFFERENCE OPTION, MIXELM=0) 
 =  3.932    (WHEN MIN. R.F.=1)  AT K=   2, I=   1, J=  78


 TOTAL NUMBER OF POINT SOURCES/SINKS PRESENT IN THE FLOW MODEL =    62

 MAXIMUM STEPSIZE WHICH MEETS STABILITY CRITERION OF THE SINK & SOURCE TERM
 =  4141.    (WHEN MIN. R.F.=1)  AT K=   2, I=   1, J= 120

 MAXIMUM STEPSIZE WHICH MEETS STABILITY CRITERION OF THE DISPERSION TERM
 =  20.29    (WHEN MIN. R.F.=1)  AT K=   1, I=   1, J=  31
     1 CALLS TO GCG PACKAGE FOR TRANSPORT TIME STEP   3 IN FLOW TIME STEP 302 STRESS PERIOD   1
     6 TOTAL ITERATIONS
 
 SOLVING FOR HEAD 
 FLOW MODEL IS TRANSIENT
 FLOW MODEL CONTAINS CONSTANT-HEAD CELLS


 MAXIMUM STEPSIZE DURING WHICH ANY PARTICLE CANNOT MOVE MORE THAN ONE CELL
 =  5.907    (WHEN MIN. R.F.=1)  AT K=  28, I=   1, J=  54

 MAXIMUM STEPSIZE WHICH MEETS STABILITY CRITERION OF THE ADVECTION TERM
 (FOR PURE FINITE-DIFFERENCE OPTION, MIXELM=0) 
 =  3.691    (WHEN MIN. R.F.=1)  AT K=   2, I=   1, J=  78


 TOTAL NUMBER OF POINT SOURCES/SINKS PRESENT IN THE FLOW MODEL =    62

 MAXIMUM STEPSIZE WHICH MEETS STABILITY CRITERION OF THE SINK & SOURCE TERM
 =  5845.    (WHEN MIN. R.F.=1)  AT K=   2, I=   1, J= 120

 MAXIMUM STEPSIZE WHICH MEETS STABILITY CRITERION OF THE DISPERSION TERM
 =  20.29    (WHEN MIN. R.F.=1)  AT K=   1, I=   1, J=  31
     1 CALLS TO GCG PACKAGE FOR TRANSPORT TIME STEP   4 IN FLOW TIME STEP 302 STRESS PERIOD   1
     5 TOTAL ITERATIONS
  MAXIMUM CONCENTRATION CHANGES FOR EACH ITERATION:
  MAX. CHANGE LAYER,ROW,COL MAX. CHANGE LAYER,ROW,COL MAX. CHANGE LAYER,ROW,COL MAX. CHANGE LAYER,ROW,COL MAX. CHANGE LAYER,ROW,COL
 ------------------------------------------------------------------------------------------------------------------------------------
   0.1993E-01 (  2,  1, 31)  0.6306E-03 (  2,  1, 78)  0.2100E-04 (  3,  1, 74)  0.7386E-06 (  3,  1, 80)  0.3006E-07 (  3,  1, 81)


                                          ================================================
                                                         FROM TIME =   3020.0     TO    3030.0    

 
 SOLVING FOR HEAD 
 FLOW MODEL IS TRANSIENT
 FLOW MODEL CONTAINS CONSTANT-HEAD CELLS


 MAXIMUM STEPSIZE DURING WHICH ANY PARTICLE CANNOT MOVE MORE THAN ONE CELL
 =  5.910    (WHEN MIN. R.F.=1)  AT K=  28, I=   1, J=  54

 MAXIMUM STEPSIZE WHICH MEETS STABILITY CRITERION OF THE ADVECTION TERM
 (FOR PURE FINITE-DIFFERENCE OPTION, MIXELM=0) 
 =  3.627    (WHEN MIN. R.F.=1)  AT K=   2, I=   1, J=  78


 TOTAL NUMBER OF POINT SOURCES/SINKS PRESENT IN THE FLOW MODEL =    62

 MAXIMUM STEPSIZE WHICH MEETS STABILITY CRITERION OF THE SINK & SOURCE TERM
 = 0.1000E+31(WHEN MIN. R.F.=1)  AT K=   0, I=   0, J=   0

 MAXIMUM STEPSIZE WHICH MEETS STABILITY CRITERION OF THE DISPERSION TERM
 =  20.29    (WHEN MIN. R.F.=1)  AT K=   1, I=   1, J=  31


     1 CALLS TO GCG PACKAGE FOR TRANSPORT TIME STEP   1 IN FLOW TIME STEP 303 STRESS PERIOD   1
     6 TOTAL ITERATIONS

 NO OUTPUT CONTROL FOR STRESS PERIOD    1   TIME STEP 303
 
 SOLVING FOR HEAD 
 FLOW MODEL IS TRANSIENT
 FLOW MODEL CONTAINS CONSTANT-HEAD CELLS


 MAXIMUM STEPSIZE DURING WHICH ANY PARTICLE CANNOT MOVE MORE THAN ONE CELL
 =  5.909    (WHEN MIN. R.F.=1)  AT K=  28, I=   1, J=  54

 MAXIMUM STEPSIZE WHICH MEETS STABILITY CRITERION OF THE ADVECTION TERM
 (FOR PURE FINITE-DIFFERENCE OPTION, MIXELM=0) 
 =  3.627    (WHEN MIN. R.F.=1)  AT K=   2, I=   1, J=  78


 TOTAL NUMBER OF POINT SOURCES/SINKS PRESENT IN THE FLOW MODEL =    62

 MAXIMUM STEPSIZE WHICH MEETS STABILITY CRITERION OF THE SINK & SOURCE TERM
 = 0.7400E+05(WHEN MIN. R.F.=1)  AT K=   2, I=   1, J= 120

 MAXIMUM STEPSIZE WHICH MEETS STABILITY CRITERION OF THE DISPERSION TERM
 =  20.29    (WHEN MIN. R.F.=1)  AT K=   1, I=   1, J=  31
     1 CALLS TO GCG PACKAGE FOR TRANSPORT TIME STEP   2 IN FLOW TIME STEP 303 STRESS PERIOD   1
     6 TOTAL ITERATIONS
 
 SOLVING FOR HEAD 
 FLOW MODEL IS TRANSIENT
 FLOW MODEL CONTAINS CONSTANT-HEAD CELLS


 MAXIMUM STEPSIZE DURING WHICH ANY PARTICLE CANNOT MOVE MORE THAN ONE CELL
 =  5.908    (WHEN MIN. R.F.=1)  AT K=  28, I=   1, J=  54

 MAXIMUM STEPSIZE WHICH MEETS STABILITY CRITERION OF THE ADVECTION TERM
 (FOR PURE FINITE-DIFFERENCE OPTION, MIXELM=0) 
 =  3.744    (WHEN MIN. R.F.=1)  AT K=   2, I=   1, J=  78


 TOTAL NUMBER OF POINT SOURCES/SINKS PRESENT IN THE FLOW MODEL =    62

 MAXIMUM STEPSIZE WHICH MEETS STABILITY CRITERION OF THE SINK & SOURCE TERM
 = 0.1000E+31(WHEN MIN. R.F.=1)  AT K=   0, I=   0, J=   0

 MAXIMUM STEPSIZE WHICH MEETS STABILITY CRITERION OF THE DISPERSION TERM
 =  20.29    (WHEN MIN. R.F.=1)  AT K=   1, I=   1, J=  31
     1 CALLS TO GCG PACKAGE FOR TRANSPORT TIME STEP   3 IN FLOW TIME STEP 303 STRESS PERIOD   1
     6 TOTAL ITERATIONS
 
 SOLVING FOR HEAD 
 FLOW MODEL IS TRANSIENT
 FLOW MODEL CONTAINS CONSTANT-HEAD CELLS


 MAXIMUM STEPSIZE DURING WHICH ANY PARTICLE CANNOT MOVE MORE THAN ONE CELL
 =  5.906    (WHEN MIN. R.F.=1)  AT K=  28, I=   1, J=  54

 MAXIMUM STEPSIZE WHICH MEETS STABILITY CRITERION OF THE ADVECTION TERM
 (FOR PURE FINITE-DIFFERENCE OPTION, MIXELM=0) 
 =  4.038    (WHEN MIN. R.F.=1)  AT K=   2, I=   1, J=  78


 TOTAL NUMBER OF POINT SOURCES/SINKS PRESENT IN THE FLOW MODEL =    62

 MAXIMUM STEPSIZE WHICH MEETS STABILITY CRITERION OF THE SINK & SOURCE TERM
 = 0.4049E+06(WHEN MIN. R.F.=1)  AT K=   2, I=   1, J= 120

 MAXIMUM STEPSIZE WHICH MEETS STABILITY CRITERION OF THE DISPERSION TERM
 =  20.29    (WHEN MIN. R.F.=1)  AT K=   1, I=   1, J=  31
     1 CALLS TO GCG PACKAGE FOR TRANSPORT TIME STEP   4 IN FLOW TIME STEP 303 STRESS PERIOD   1
     5 TOTAL ITERATIONS
  MAXIMUM CONCENTRATION CHANGES FOR EACH ITERATION:
  MAX. CHANGE LAYER,ROW,COL MAX. CHANGE LAYER,ROW,COL MAX. CHANGE LAYER,ROW,COL MAX. CHANGE LAYER,ROW,COL MAX. CHANGE LAYER,ROW,COL
 ------------------------------------------------------------------------------------------------------------------------------------
   0.2228E-01 (  2,  1, 79)  0.6856E-03 (  2,  1, 77)  0.2517E-04 (  3,  1, 77)  0.8426E-06 (  3,  1, 43)  0.2923E-07 (  5,  1, 80)


                                          ================================================
                                                         FROM TIME =   3030.0     TO    3040.0    

 
 SOLVING FOR HEAD 
 FLOW MODEL IS TRANSIENT
 FLOW MODEL CONTAINS CONSTANT-HEAD CELLS


 MAXIMUM STEPSIZE DURING WHICH ANY PARTICLE CANNOT MOVE MORE THAN ONE CELL
 =  5.910    (WHEN MIN. R.F.=1)  AT K=  28, I=   1, J=  54

 MAXIMUM STEPSIZE WHICH MEETS STABILITY CRITERION OF THE ADVECTION TERM
 (FOR PURE FINITE-DIFFERENCE OPTION, MIXELM=0) 
 =  4.134    (WHEN MIN. R.F.=1)  AT K=   2, I=   1, J=  77


 TOTAL NUMBER OF POINT SOURCES/SINKS PRESENT IN THE FLOW MODEL =    62

 MAXIMUM STEPSIZE WHICH MEETS STABILITY CRITERION OF THE SINK & SOURCE TERM
 = 0.4605E+05(WHEN MIN. R.F.=1)  AT K=   2, I=   1, J= 120

 MAXIMUM STEPSIZE WHICH MEETS STABILITY CRITERION OF THE DISPERSION TERM
 =  20.29    (WHEN MIN. R.F.=1)  AT K=   1, I=   1, J=  31


     1 CALLS TO GCG PACKAGE FOR TRANSPORT TIME STEP   1 IN FLOW TIME STEP 304 STRESS PERIOD   1
     6 TOTAL ITERATIONS

 NO OUTPUT CONTROL FOR STRESS PERIOD    1   TIME STEP 304
 
 SOLVING FOR HEAD 
 FLOW MODEL IS TRANSIENT
 FLOW MODEL CONTAINS CONSTANT-HEAD CELLS


 MAXIMUM STEPSIZE DURING WHICH ANY PARTICLE CANNOT MOVE MORE THAN ONE CELL
 =  5.907    (WHEN MIN. R.F.=1)  AT K=  28, I=   1, J=  54

 MAXIMUM STEPSIZE WHICH MEETS STABILITY CRITERION OF THE ADVECTION TERM
 (FOR PURE FINITE-DIFFERENCE OPTION, MIXELM=0) 
 =  3.863    (WHEN MIN. R.F.=1)  AT K=   2, I=   1, J=  77


 TOTAL NUMBER OF POINT SOURCES/SINKS PRESENT IN THE FLOW MODEL =    62

 MAXIMUM STEPSIZE WHICH MEETS STABILITY CRITERION OF THE SINK & SOURCE TERM
 =  9079.    (WHEN MIN. R.F.=1)  AT K=   2, I=   1, J= 120

 MAXIMUM STEPSIZE WHICH MEETS STABILITY CRITERION OF THE DISPERSION TERM
 =  20.29    (WHEN MIN. R.F.=1)  AT K=   1, I=   1, J=  31
     1 CALLS TO GCG PACKAGE FOR TRANSPORT TIME STEP   2 IN FLOW TIME STEP 304 STRESS PERIOD   1
     6 TOTAL ITERATIONS
 
 SOLVING FOR HEAD 
 FLOW MODEL IS TRANSIENT
 FLOW MODEL CONTAINS CONSTANT-HEAD CELLS


 MAXIMUM STEPSIZE DURING WHICH ANY PARTICLE CANNOT MOVE MORE THAN ONE CELL
 =  5.903    (WHEN MIN. R.F.=1)  AT K=  28, I=   1, J=  54

 MAXIMUM STEPSIZE WHICH MEETS STABILITY CRITERION OF THE ADVECTION TERM
 (FOR PURE FINITE-DIFFERENCE OPTION, MIXELM=0) 
 =  3.774    (WHEN MIN. R.F.=1)  AT K=   2, I=   1, J=  77


 TOTAL NUMBER OF POINT SOURCES/SINKS PRESENT IN THE FLOW MODEL =    62

 MAXIMUM STEPSIZE WHICH MEETS STABILITY CRITERION OF THE SINK & SOURCE TERM
 = 0.1758E+06(WHEN MIN. R.F.=1)  AT K=   2, I=   1, J= 120

 MAXIMUM STEPSIZE WHICH MEETS STABILITY CRITERION OF THE DISPERSION TERM
 =  20.29    (WHEN MIN. R.F.=1)  AT K=   1, I=   1, J=  31
     1 CALLS TO GCG PACKAGE FOR TRANSPORT TIME STEP   3 IN FLOW TIME STEP 304 STRESS PERIOD   1
     6 TOTAL ITERATIONS
 
 SOLVING FOR HEAD 
 FLOW MODEL IS TRANSIENT
 FLOW MODEL CONTAINS CONSTANT-HEAD CELLS


 MAXIMUM STEPSIZE DURING WHICH ANY PARTICLE CANNOT MOVE MORE THAN ONE CELL
 =  5.902    (WHEN MIN. R.F.=1)  AT K=  28, I=   1, J=  54

 MAXIMUM STEPSIZE WHICH MEETS STABILITY CRITERION OF THE ADVECTION TERM
 (FOR PURE FINITE-DIFFERENCE OPTION, MIXELM=0) 
 =  3.814    (WHEN MIN. R.F.=1)  AT K=   2, I=   1, J=  77


 TOTAL NUMBER OF POINT SOURCES/SINKS PRESENT IN THE FLOW MODEL =    62

 MAXIMUM STEPSIZE WHICH MEETS STABILITY CRITERION OF THE SINK & SOURCE TERM
 = 0.1000E+31(WHEN MIN. R.F.=1)  AT K=   0, I=   0, J=   0

 MAXIMUM STEPSIZE WHICH MEETS STABILITY CRITERION OF THE DISPERSION TERM
 =  20.29    (WHEN MIN. R.F.=1)  AT K=   1, I=   1, J=  31
     1 CALLS TO GCG PACKAGE FOR TRANSPORT TIME STEP   4 IN FLOW TIME STEP 304 STRESS PERIOD   1
     4 TOTAL ITERATIONS
  MAXIMUM CONCENTRATION CHANGES FOR EACH ITERATION:
  MAX. CHANGE LAYER,ROW,COL MAX. CHANGE LAYER,ROW,COL MAX. CHANGE LAYER,ROW,COL MAX. CHANGE LAYER,ROW,COL MAX. CHANGE LAYER,ROW,COL
 ------------------------------------------------------------------------------------------------------------------------------------
   0.1183E-01 (  2,  1, 78)  0.1923E-03 (  2,  1, 75)  0.3801E-05 (  2,  1, 79)  0.8658E-07 (  3,  1, 79)


                                          ================================================
                                                         FROM TIME =   3040.0     TO    3050.0    

 
 SOLVING FOR HEAD 
 FLOW MODEL IS TRANSIENT
 FLOW MODEL CONTAINS CONSTANT-HEAD CELLS


 MAXIMUM STEPSIZE DURING WHICH ANY PARTICLE CANNOT MOVE MORE THAN ONE CELL
 =  5.908    (WHEN MIN. R.F.=1)  AT K=  28, I=   1, J=  54

 MAXIMUM STEPSIZE WHICH MEETS STABILITY CRITERION OF THE ADVECTION TERM
 (FOR PURE FINITE-DIFFERENCE OPTION, MIXELM=0) 
 =  3.862    (WHEN MIN. R.F.=1)  AT K=   2, I=   1, J=  77


 TOTAL NUMBER OF POINT SOURCES/SINKS PRESENT IN THE FLOW MODEL =    62

 MAXIMUM STEPSIZE WHICH MEETS STABILITY CRITERION OF THE SINK & SOURCE TERM
 = 0.1000E+31(WHEN MIN. R.F.=1)  AT K=   0, I=   0, J=   0

 MAXIMUM STEPSIZE WHICH MEETS STABILITY CRITERION OF THE DISPERSION TERM
 =  20.29    (WHEN MIN. R.F.=1)  AT K=   1, I=   1, J=  31


     1 CALLS TO GCG PACKAGE FOR TRANSPORT TIME STEP   1 IN FLOW TIME STEP 305 STRESS PERIOD   1
     6 TOTAL ITERATIONS

 NO OUTPUT CONTROL FOR STRESS PERIOD    1   TIME STEP 305
 
 SOLVING FOR HEAD 
 FLOW MODEL IS TRANSIENT
 FLOW MODEL CONTAINS CONSTANT-HEAD CELLS


 MAXIMUM STEPSIZE DURING WHICH ANY PARTICLE CANNOT MOVE MORE THAN ONE CELL
 =  5.909    (WHEN MIN. R.F.=1)  AT K=  28, I=   1, J=  54

 MAXIMUM STEPSIZE WHICH MEETS STABILITY CRITERION OF THE ADVECTION TERM
 (FOR PURE FINITE-DIFFERENCE OPTION, MIXELM=0) 
 =  4.078    (WHEN MIN. R.F.=1)  AT K=   2, I=   1, J=  77


 TOTAL NUMBER OF POINT SOURCES/SINKS PRESENT IN THE FLOW MODEL =    62

 MAXIMUM STEPSIZE WHICH MEETS STABILITY CRITERION OF THE SINK & SOURCE TERM
 = 0.1221E+05(WHEN MIN. R.F.=1)  AT K=   2, I=   1, J= 120

 MAXIMUM STEPSIZE WHICH MEETS STABILITY CRITERION OF THE DISPERSION TERM
 =  20.29    (WHEN MIN. R.F.=1)  AT K=   1, I=   1, J=  31
     1 CALLS TO GCG PACKAGE FOR TRANSPORT TIME STEP   2 IN FLOW TIME STEP 305 STRESS PERIOD   1
     6 TOTAL ITERATIONS
 
 SOLVING FOR HEAD 
 FLOW MODEL IS TRANSIENT
 FLOW MODEL CONTAINS CONSTANT-HEAD CELLS


 MAXIMUM STEPSIZE DURING WHICH ANY PARTICLE CANNOT MOVE MORE THAN ONE CELL
 =  5.910    (WHEN MIN. R.F.=1)  AT K=  28, I=   1, J=  54

 MAXIMUM STEPSIZE WHICH MEETS STABILITY CRITERION OF THE ADVECTION TERM
 (FOR PURE FINITE-DIFFERENCE OPTION, MIXELM=0) 
 =  4.133    (WHEN MIN. R.F.=1)  AT K=   2, I=   1, J=  40


 TOTAL NUMBER OF POINT SOURCES/SINKS PRESENT IN THE FLOW MODEL =    62

 MAXIMUM STEPSIZE WHICH MEETS STABILITY CRITERION OF THE SINK & SOURCE TERM
 =  4660.    (WHEN MIN. R.F.=1)  AT K=   2, I=   1, J= 120

 MAXIMUM STEPSIZE WHICH MEETS STABILITY CRITERION OF THE DISPERSION TERM
 =  20.29    (WHEN MIN. R.F.=1)  AT K=   1, I=   1, J=  31
     1 CALLS TO GCG PACKAGE FOR TRANSPORT TIME STEP   3 IN FLOW TIME STEP 305 STRESS PERIOD   1
     6 TOTAL ITERATIONS
 
 SOLVING FOR HEAD 
 FLOW MODEL IS TRANSIENT
 FLOW MODEL CONTAINS CONSTANT-HEAD CELLS


 MAXIMUM STEPSIZE DURING WHICH ANY PARTICLE CANNOT MOVE MORE THAN ONE CELL
 =  5.910    (WHEN MIN. R.F.=1)  AT K=  28, I=   1, J=  54

 MAXIMUM STEPSIZE WHICH MEETS STABILITY CRITERION OF THE ADVECTION TERM
 (FOR PURE FINITE-DIFFERENCE OPTION, MIXELM=0) 
 =  4.008    (WHEN MIN. R.F.=1)  AT K=   2, I=   1, J=  40


 TOTAL NUMBER OF POINT SOURCES/SINKS PRESENT IN THE FLOW MODEL =    62

 MAXIMUM STEPSIZE WHICH MEETS STABILITY CRITERION OF THE SINK & SOURCE TERM
 =  4052.    (WHEN MIN. R.F.=1)  AT K=   2, I=   1, J= 120

 MAXIMUM STEPSIZE WHICH MEETS STABILITY CRITERION OF THE DISPERSION TERM
 =  20.29    (WHEN MIN. R.F.=1)  AT K=   1, I=   1, J=  31
     1 CALLS TO GCG PACKAGE FOR TRANSPORT TIME STEP   4 IN FLOW TIME STEP 305 STRESS PERIOD   1
     5 TOTAL ITERATIONS
  MAXIMUM CONCENTRATION CHANGES FOR EACH ITERATION:
  MAX. CHANGE LAYER,ROW,COL MAX. CHANGE LAYER,ROW,COL MAX. CHANGE LAYER,ROW,COL MAX. CHANGE LAYER,ROW,COL MAX. CHANGE LAYER,ROW,COL
 ------------------------------------------------------------------------------------------------------------------------------------
   0.1286E-01 (  2,  1, 31)  0.3009E-03 (  2,  1, 76)  0.6031E-05 (  2,  1, 76)  0.1587E-06 (  3,  1, 75)  0.4634E-08 (  4,  1, 75)


                                          ================================================
                                                         FROM TIME =   3050.0     TO    3060.0    

 
 SOLVING FOR HEAD 
 FLOW MODEL IS TRANSIENT
 FLOW MODEL CONTAINS CONSTANT-HEAD CELLS


 MAXIMUM STEPSIZE DURING WHICH ANY PARTICLE CANNOT MOVE MORE THAN ONE CELL
 =  5.917    (WHEN MIN. R.F.=1)  AT K=  28, I=   1, J=  54

 MAXIMUM STEPSIZE WHICH MEETS STABILITY CRITERION OF THE ADVECTION TERM
 (FOR PURE FINITE-DIFFERENCE OPTION, MIXELM=0) 
 =  4.031    (WHEN MIN. R.F.=1)  AT K=   2, I=   1, J=  40


 TOTAL NUMBER OF POINT SOURCES/SINKS PRESENT IN THE FLOW MODEL =    62

 MAXIMUM STEPSIZE WHICH MEETS STABILITY CRITERION OF THE SINK & SOURCE TERM
 = 0.6126E+05(WHEN MIN. R.F.=1)  AT K=   2, I=   1, J= 120

 MAXIMUM STEPSIZE WHICH MEETS STABILITY CRITERION OF THE DISPERSION TERM
 =  20.29    (WHEN MIN. R.F.=1)  AT K=   1, I=   1, J=  31


     1 CALLS TO GCG PACKAGE FOR TRANSPORT TIME STEP   1 IN FLOW TIME STEP 306 STRESS PERIOD   1
     6 TOTAL ITERATIONS

 NO OUTPUT CONTROL FOR STRESS PERIOD    1   TIME STEP 306
 
 SOLVING FOR HEAD 
 FLOW MODEL IS TRANSIENT
 FLOW MODEL CONTAINS CONSTANT-HEAD CELLS


 MAXIMUM STEPSIZE DURING WHICH ANY PARTICLE CANNOT MOVE MORE THAN ONE CELL
 =  5.917    (WHEN MIN. R.F.=1)  AT K=  28, I=   1, J=  54

 MAXIMUM STEPSIZE WHICH MEETS STABILITY CRITERION OF THE ADVECTION TERM
 (FOR PURE FINITE-DIFFERENCE OPTION, MIXELM=0) 
 =  4.188    (WHEN MIN. R.F.=1)  AT K=   2, I=   1, J=  76


 TOTAL NUMBER OF POINT SOURCES/SINKS PRESENT IN THE FLOW MODEL =    62

 MAXIMUM STEPSIZE WHICH MEETS STABILITY CRITERION OF THE SINK & SOURCE TERM
 =  4031.    (WHEN MIN. R.F.=1)  AT K=   2, I=   1, J= 120

 MAXIMUM STEPSIZE WHICH MEETS STABILITY CRITERION OF THE DISPERSION TERM
 =  20.29    (WHEN MIN. R.F.=1)  AT K=   1, I=   1, J=  31
     1 CALLS TO GCG PACKAGE FOR TRANSPORT TIME STEP   2 IN FLOW TIME STEP 306 STRESS PERIOD   1
     6 TOTAL ITERATIONS
 
 SOLVING FOR HEAD 
 FLOW MODEL IS TRANSIENT
 FLOW MODEL CONTAINS CONSTANT-HEAD CELLS


 MAXIMUM STEPSIZE DURING WHICH ANY PARTICLE CANNOT MOVE MORE THAN ONE CELL
 =  5.828    (WHEN MIN. R.F.=1)  AT K=   4, I=   1, J=  48

 MAXIMUM STEPSIZE WHICH MEETS STABILITY CRITERION OF THE ADVECTION TERM
 (FOR PURE FINITE-DIFFERENCE OPTION, MIXELM=0) 
 =  3.943    (WHEN MIN. R.F.=1)  AT K=   2, I=   1, J=  41


 TOTAL NUMBER OF POINT SOURCES/SINKS PRESENT IN THE FLOW MODEL =    62

 MAXIMUM STEPSIZE WHICH MEETS STABILITY CRITERION OF THE SINK & SOURCE TERM
 =  4172.    (WHEN MIN. R.F.=1)  AT K=   2, I=   1, J= 120

 MAXIMUM STEPSIZE WHICH MEETS STABILITY CRITERION OF THE DISPERSION TERM
 =  20.29    (WHEN MIN. R.F.=1)  AT K=   1, I=   1, J=  31
     1 CALLS TO GCG PACKAGE FOR TRANSPORT TIME STEP   3 IN FLOW TIME STEP 306 STRESS PERIOD   1
     6 TOTAL ITERATIONS
 
 SOLVING FOR HEAD 
 FLOW MODEL IS TRANSIENT
 FLOW MODEL CONTAINS CONSTANT-HEAD CELLS


 MAXIMUM STEPSIZE DURING WHICH ANY PARTICLE CANNOT MOVE MORE THAN ONE CELL
 =  5.672    (WHEN MIN. R.F.=1)  AT K=   4, I=   1, J=  48

 MAXIMUM STEPSIZE WHICH MEETS STABILITY CRITERION OF THE ADVECTION TERM
 (FOR PURE FINITE-DIFFERENCE OPTION, MIXELM=0) 
 =  3.777    (WHEN MIN. R.F.=1)  AT K=   2, I=   1, J=  41


 TOTAL NUMBER OF POINT SOURCES/SINKS PRESENT IN THE FLOW MODEL =    62

 MAXIMUM STEPSIZE WHICH MEETS STABILITY CRITERION OF THE SINK & SOURCE TERM
 =  3063.    (WHEN MIN. R.F.=1)  AT K=   2, I=   1, J= 120

 MAXIMUM STEPSIZE WHICH MEETS STABILITY CRITERION OF THE DISPERSION TERM
 =  20.29    (WHEN MIN. R.F.=1)  AT K=   1, I=   1, J=  31
     1 CALLS TO GCG PACKAGE FOR TRANSPORT TIME STEP   4 IN FLOW TIME STEP 306 STRESS PERIOD   1
     4 TOTAL ITERATIONS
  MAXIMUM CONCENTRATION CHANGES FOR EACH ITERATION:
  MAX. CHANGE LAYER,ROW,COL MAX. CHANGE LAYER,ROW,COL MAX. CHANGE LAYER,ROW,COL MAX. CHANGE LAYER,ROW,COL MAX. CHANGE LAYER,ROW,COL
 ------------------------------------------------------------------------------------------------------------------------------------
   0.1019E-01 (  2,  1, 77)  0.1162E-03 (  2,  1, 77)  0.2461E-05 (  2,  1, 78)  0.5242E-07 (  3,  1, 78)


                                          ================================================
                                                         FROM TIME =   3060.0     TO    3070.0    

 
 SOLVING FOR HEAD 
 FLOW MODEL IS TRANSIENT
 FLOW MODEL CONTAINS CONSTANT-HEAD CELLS


 MAXIMUM STEPSIZE DURING WHICH ANY PARTICLE CANNOT MOVE MORE THAN ONE CELL
 =  5.634    (WHEN MIN. R.F.=1)  AT K=   4, I=   1, J=  48

 MAXIMUM STEPSIZE WHICH MEETS STABILITY CRITERION OF THE ADVECTION TERM
 (FOR PURE FINITE-DIFFERENCE OPTION, MIXELM=0) 
 =  3.764    (WHEN MIN. R.F.=1)  AT K=   2, I=   1, J=  41


 TOTAL NUMBER OF POINT SOURCES/SINKS PRESENT IN THE FLOW MODEL =    62

 MAXIMUM STEPSIZE WHICH MEETS STABILITY CRITERION OF THE SINK & SOURCE TERM
 =  4296.    (WHEN MIN. R.F.=1)  AT K=   2, I=   1, J= 120

 MAXIMUM STEPSIZE WHICH MEETS STABILITY CRITERION OF THE DISPERSION TERM
 =  20.29    (WHEN MIN. R.F.=1)  AT K=   1, I=   1, J=  31


     1 CALLS TO GCG PACKAGE FOR TRANSPORT TIME STEP   1 IN FLOW TIME STEP 307 STRESS PERIOD   1
     6 TOTAL ITERATIONS

 NO OUTPUT CONTROL FOR STRESS PERIOD    1   TIME STEP 307
 
 SOLVING FOR HEAD 
 FLOW MODEL IS TRANSIENT
 FLOW MODEL CONTAINS CONSTANT-HEAD CELLS


 MAXIMUM STEPSIZE DURING WHICH ANY PARTICLE CANNOT MOVE MORE THAN ONE CELL
 =  5.525    (WHEN MIN. R.F.=1)  AT K=   4, I=   1, J=  48

 MAXIMUM STEPSIZE WHICH MEETS STABILITY CRITERION OF THE ADVECTION TERM
 (FOR PURE FINITE-DIFFERENCE OPTION, MIXELM=0) 
 =  3.811    (WHEN MIN. R.F.=1)  AT K=   2, I=   1, J=  41


 TOTAL NUMBER OF POINT SOURCES/SINKS PRESENT IN THE FLOW MODEL =    62

 MAXIMUM STEPSIZE WHICH MEETS STABILITY CRITERION OF THE SINK & SOURCE TERM
 =  2036.    (WHEN MIN. R.F.=1)  AT K=   2, I=   1, J= 120

 MAXIMUM STEPSIZE WHICH MEETS STABILITY CRITERION OF THE DISPERSION TERM
 =  20.29    (WHEN MIN. R.F.=1)  AT K=   1, I=   1, J=  31
     1 CALLS TO GCG PACKAGE FOR TRANSPORT TIME STEP   2 IN FLOW TIME STEP 307 STRESS PERIOD   1
     6 TOTAL ITERATIONS
 
 SOLVING FOR HEAD 
 FLOW MODEL IS TRANSIENT
 FLOW MODEL CONTAINS CONSTANT-HEAD CELLS


 MAXIMUM STEPSIZE DURING WHICH ANY PARTICLE CANNOT MOVE MORE THAN ONE CELL
 =  5.436    (WHEN MIN. R.F.=1)  AT K=   4, I=   1, J=  48

 MAXIMUM STEPSIZE WHICH MEETS STABILITY CRITERION OF THE ADVECTION TERM
 (FOR PURE FINITE-DIFFERENCE OPTION, MIXELM=0) 
 =  4.058    (WHEN MIN. R.F.=1)  AT K=   2, I=   1, J=  41


 TOTAL NUMBER OF POINT SOURCES/SINKS PRESENT IN THE FLOW MODEL =    62

 MAXIMUM STEPSIZE WHICH MEETS STABILITY CRITERION OF THE SINK & SOURCE TERM
 =  1835.    (WHEN MIN. R.F.=1)  AT K=   2, I=   1, J= 120

 MAXIMUM STEPSIZE WHICH MEETS STABILITY CRITERION OF THE DISPERSION TERM
 =  20.29    (WHEN MIN. R.F.=1)  AT K=   1, I=   1, J=  31
     1 CALLS TO GCG PACKAGE FOR TRANSPORT TIME STEP   3 IN FLOW TIME STEP 307 STRESS PERIOD   1
     6 TOTAL ITERATIONS
 
 SOLVING FOR HEAD 
 FLOW MODEL IS TRANSIENT
 FLOW MODEL CONTAINS CONSTANT-HEAD CELLS


 MAXIMUM STEPSIZE DURING WHICH ANY PARTICLE CANNOT MOVE MORE THAN ONE CELL
 =  5.373    (WHEN MIN. R.F.=1)  AT K=   4, I=   1, J=  48

 MAXIMUM STEPSIZE WHICH MEETS STABILITY CRITERION OF THE ADVECTION TERM
 (FOR PURE FINITE-DIFFERENCE OPTION, MIXELM=0) 
 =  3.849    (WHEN MIN. R.F.=1)  AT K=   2, I=   1, J=  42


 TOTAL NUMBER OF POINT SOURCES/SINKS PRESENT IN THE FLOW MODEL =    62

 MAXIMUM STEPSIZE WHICH MEETS STABILITY CRITERION OF THE SINK & SOURCE TERM
 =  1726.    (WHEN MIN. R.F.=1)  AT K=   2, I=   1, J= 120

 MAXIMUM STEPSIZE WHICH MEETS STABILITY CRITERION OF THE DISPERSION TERM
 =  20.29    (WHEN MIN. R.F.=1)  AT K=   1, I=   1, J=  31
     1 CALLS TO GCG PACKAGE FOR TRANSPORT TIME STEP   4 IN FLOW TIME STEP 307 STRESS PERIOD   1
     5 TOTAL ITERATIONS
  MAXIMUM CONCENTRATION CHANGES FOR EACH ITERATION:
  MAX. CHANGE LAYER,ROW,COL MAX. CHANGE LAYER,ROW,COL MAX. CHANGE LAYER,ROW,COL MAX. CHANGE LAYER,ROW,COL MAX. CHANGE LAYER,ROW,COL
 ------------------------------------------------------------------------------------------------------------------------------------
   0.1887E-01 (  2,  1, 83)  0.3957E-03 (  3,  1, 78)  0.1015E-04 (  2,  1, 84)  0.5046E-06 (  3,  1, 45)  0.1333E-07 (  4,  1, 45)


                                          ================================================
                                                         FROM TIME =   3070.0     TO    3080.0    

 
 SOLVING FOR HEAD 
 FLOW MODEL IS TRANSIENT
 FLOW MODEL CONTAINS CONSTANT-HEAD CELLS


 MAXIMUM STEPSIZE DURING WHICH ANY PARTICLE CANNOT MOVE MORE THAN ONE CELL
 =  5.350    (WHEN MIN. R.F.=1)  AT K=   4, I=   1, J=  48

 MAXIMUM STEPSIZE WHICH MEETS STABILITY CRITERION OF THE ADVECTION TERM
 (FOR PURE FINITE-DIFFERENCE OPTION, MIXELM=0) 
 =  3.766    (WHEN MIN. R.F.=1)  AT K=   2, I=   1, J=  42


 TOTAL NUMBER OF POINT SOURCES/SINKS PRESENT IN THE FLOW MODEL =    62

 MAXIMUM STEPSIZE WHICH MEETS STABILITY CRITERION OF THE SINK & SOURCE TERM
 =  1905.    (WHEN MIN. R.F.=1)  AT K=   2, I=   1, J= 120

 MAXIMUM STEPSIZE WHICH MEETS STABILITY CRITERION OF THE DISPERSION TERM
 =  20.29    (WHEN MIN. R.F.=1)  AT K=   1, I=   1, J=  31


     1 CALLS TO GCG PACKAGE FOR TRANSPORT TIME STEP   1 IN FLOW TIME STEP 308 STRESS PERIOD   1
     6 TOTAL ITERATIONS

 NO OUTPUT CONTROL FOR STRESS PERIOD    1   TIME STEP 308
 
 SOLVING FOR HEAD 
 FLOW MODEL IS TRANSIENT
 FLOW MODEL CONTAINS CONSTANT-HEAD CELLS


 MAXIMUM STEPSIZE DURING WHICH ANY PARTICLE CANNOT MOVE MORE THAN ONE CELL
 =  5.325    (WHEN MIN. R.F.=1)  AT K=   4, I=   1, J=  48

 MAXIMUM STEPSIZE WHICH MEETS STABILITY CRITERION OF THE ADVECTION TERM
 (FOR PURE FINITE-DIFFERENCE OPTION, MIXELM=0) 
 =  3.712    (WHEN MIN. R.F.=1)  AT K=   2, I=   1, J=  42


 TOTAL NUMBER OF POINT SOURCES/SINKS PRESENT IN THE FLOW MODEL =    62

 MAXIMUM STEPSIZE WHICH MEETS STABILITY CRITERION OF THE SINK & SOURCE TERM
 =  1413.    (WHEN MIN. R.F.=1)  AT K=   2, I=   1, J= 120

 MAXIMUM STEPSIZE WHICH MEETS STABILITY CRITERION OF THE DISPERSION TERM
 =  20.29    (WHEN MIN. R.F.=1)  AT K=   1, I=   1, J=  31
     1 CALLS TO GCG PACKAGE FOR TRANSPORT TIME STEP   2 IN FLOW TIME STEP 308 STRESS PERIOD   1
     6 TOTAL ITERATIONS
 
 SOLVING FOR HEAD 
 FLOW MODEL IS TRANSIENT
 FLOW MODEL CONTAINS CONSTANT-HEAD CELLS


 MAXIMUM STEPSIZE DURING WHICH ANY PARTICLE CANNOT MOVE MORE THAN ONE CELL
 =  5.327    (WHEN MIN. R.F.=1)  AT K=   4, I=   1, J=  48

 MAXIMUM STEPSIZE WHICH MEETS STABILITY CRITERION OF THE ADVECTION TERM
 (FOR PURE FINITE-DIFFERENCE OPTION, MIXELM=0) 
 =  3.777    (WHEN MIN. R.F.=1)  AT K=   2, I=   1, J=  42


 TOTAL NUMBER OF POINT SOURCES/SINKS PRESENT IN THE FLOW MODEL =    62

 MAXIMUM STEPSIZE WHICH MEETS STABILITY CRITERION OF THE SINK & SOURCE TERM
 =  1549.    (WHEN MIN. R.F.=1)  AT K=   2, I=   1, J= 120

 MAXIMUM STEPSIZE WHICH MEETS STABILITY CRITERION OF THE DISPERSION TERM
 =  20.29    (WHEN MIN. R.F.=1)  AT K=   1, I=   1, J=  31
     1 CALLS TO GCG PACKAGE FOR TRANSPORT TIME STEP   3 IN FLOW TIME STEP 308 STRESS PERIOD   1
     6 TOTAL ITERATIONS
 
 SOLVING FOR HEAD 
 FLOW MODEL IS TRANSIENT
 FLOW MODEL CONTAINS CONSTANT-HEAD CELLS


 MAXIMUM STEPSIZE DURING WHICH ANY PARTICLE CANNOT MOVE MORE THAN ONE CELL
 =  5.356    (WHEN MIN. R.F.=1)  AT K=   4, I=   1, J=  48

 MAXIMUM STEPSIZE WHICH MEETS STABILITY CRITERION OF THE ADVECTION TERM
 (FOR PURE FINITE-DIFFERENCE OPTION, MIXELM=0) 
 =  3.896    (WHEN MIN. R.F.=1)  AT K=   2, I=   1, J=  81


 TOTAL NUMBER OF POINT SOURCES/SINKS PRESENT IN THE FLOW MODEL =    62

 MAXIMUM STEPSIZE WHICH MEETS STABILITY CRITERION OF THE SINK & SOURCE TERM
 =  1496.    (WHEN MIN. R.F.=1)  AT K=   2, I=   1, J= 120

 MAXIMUM STEPSIZE WHICH MEETS STABILITY CRITERION OF THE DISPERSION TERM
 =  20.29    (WHEN MIN. R.F.=1)  AT K=   1, I=   1, J=  31
     1 CALLS TO GCG PACKAGE FOR TRANSPORT TIME STEP   4 IN FLOW TIME STEP 308 STRESS PERIOD   1
     5 TOTAL ITERATIONS
  MAXIMUM CONCENTRATION CHANGES FOR EACH ITERATION:
  MAX. CHANGE LAYER,ROW,COL MAX. CHANGE LAYER,ROW,COL MAX. CHANGE LAYER,ROW,COL MAX. CHANGE LAYER,ROW,COL MAX. CHANGE LAYER,ROW,COL
 ------------------------------------------------------------------------------------------------------------------------------------
   0.1960E-01 (  2,  1, 82)  0.4935E-03 (  2,  1, 82)  0.1459E-04 (  2,  1, 83)  0.4751E-06 (  3,  1, 83)  0.1246E-07 (  4,  1, 83)


                                          ================================================
                                                         FROM TIME =   3080.0     TO    3090.0    

 
 SOLVING FOR HEAD 
 FLOW MODEL IS TRANSIENT
 FLOW MODEL CONTAINS CONSTANT-HEAD CELLS


 MAXIMUM STEPSIZE DURING WHICH ANY PARTICLE CANNOT MOVE MORE THAN ONE CELL
 =  5.369    (WHEN MIN. R.F.=1)  AT K=   4, I=   1, J=  74

 MAXIMUM STEPSIZE WHICH MEETS STABILITY CRITERION OF THE ADVECTION TERM
 (FOR PURE FINITE-DIFFERENCE OPTION, MIXELM=0) 
 =  3.968    (WHEN MIN. R.F.=1)  AT K=   2, I=   1, J=  81


 TOTAL NUMBER OF POINT SOURCES/SINKS PRESENT IN THE FLOW MODEL =    62

 MAXIMUM STEPSIZE WHICH MEETS STABILITY CRITERION OF THE SINK & SOURCE TERM
 =  1522.    (WHEN MIN. R.F.=1)  AT K=   2, I=   1, J= 120

 MAXIMUM STEPSIZE WHICH MEETS STABILITY CRITERION OF THE DISPERSION TERM
 =  20.29    (WHEN MIN. R.F.=1)  AT K=   1, I=   1, J=  31


     1 CALLS TO GCG PACKAGE FOR TRANSPORT TIME STEP   1 IN FLOW TIME STEP 309 STRESS PERIOD   1
     6 TOTAL ITERATIONS

 NO OUTPUT CONTROL FOR STRESS PERIOD    1   TIME STEP 309
 
 SOLVING FOR HEAD 
 FLOW MODEL IS TRANSIENT
 FLOW MODEL CONTAINS CONSTANT-HEAD CELLS


 MAXIMUM STEPSIZE DURING WHICH ANY PARTICLE CANNOT MOVE MORE THAN ONE CELL
 =  5.203    (WHEN MIN. R.F.=1)  AT K=   4, I=   1, J=  74

 MAXIMUM STEPSIZE WHICH MEETS STABILITY CRITERION OF THE ADVECTION TERM
 (FOR PURE FINITE-DIFFERENCE OPTION, MIXELM=0) 
 =  3.824    (WHEN MIN. R.F.=1)  AT K=   2, I=   1, J=  43


 TOTAL NUMBER OF POINT SOURCES/SINKS PRESENT IN THE FLOW MODEL =    62

 MAXIMUM STEPSIZE WHICH MEETS STABILITY CRITERION OF THE SINK & SOURCE TERM
 =  1141.    (WHEN MIN. R.F.=1)  AT K=   2, I=   1, J= 120

 MAXIMUM STEPSIZE WHICH MEETS STABILITY CRITERION OF THE DISPERSION TERM
 =  20.29    (WHEN MIN. R.F.=1)  AT K=   1, I=   1, J=  31
     1 CALLS TO GCG PACKAGE FOR TRANSPORT TIME STEP   2 IN FLOW TIME STEP 309 STRESS PERIOD   1
     6 TOTAL ITERATIONS
 
 SOLVING FOR HEAD 
 FLOW MODEL IS TRANSIENT
 FLOW MODEL CONTAINS CONSTANT-HEAD CELLS


 MAXIMUM STEPSIZE DURING WHICH ANY PARTICLE CANNOT MOVE MORE THAN ONE CELL
 =  5.130    (WHEN MIN. R.F.=1)  AT K=   4, I=   1, J=  74

 MAXIMUM STEPSIZE WHICH MEETS STABILITY CRITERION OF THE ADVECTION TERM
 (FOR PURE FINITE-DIFFERENCE OPTION, MIXELM=0) 
 =  3.701    (WHEN MIN. R.F.=1)  AT K=   2, I=   1, J=  80


 TOTAL NUMBER OF POINT SOURCES/SINKS PRESENT IN THE FLOW MODEL =    62

 MAXIMUM STEPSIZE WHICH MEETS STABILITY CRITERION OF THE SINK & SOURCE TERM
 =  1120.    (WHEN MIN. R.F.=1)  AT K=   2, I=   1, J= 120

 MAXIMUM STEPSIZE WHICH MEETS STABILITY CRITERION OF THE DISPERSION TERM
 =  20.29    (WHEN MIN. R.F.=1)  AT K=   1, I=   1, J=  31
     1 CALLS TO GCG PACKAGE FOR TRANSPORT TIME STEP   3 IN FLOW TIME STEP 309 STRESS PERIOD   1
     6 TOTAL ITERATIONS
 
 SOLVING FOR HEAD 
 FLOW MODEL IS TRANSIENT
 FLOW MODEL CONTAINS CONSTANT-HEAD CELLS


 MAXIMUM STEPSIZE DURING WHICH ANY PARTICLE CANNOT MOVE MORE THAN ONE CELL
 =  5.135    (WHEN MIN. R.F.=1)  AT K=   4, I=   1, J=  74

 MAXIMUM STEPSIZE WHICH MEETS STABILITY CRITERION OF THE ADVECTION TERM
 (FOR PURE FINITE-DIFFERENCE OPTION, MIXELM=0) 
 =  3.598    (WHEN MIN. R.F.=1)  AT K=   2, I=   1, J=  80


 TOTAL NUMBER OF POINT SOURCES/SINKS PRESENT IN THE FLOW MODEL =    62

 MAXIMUM STEPSIZE WHICH MEETS STABILITY CRITERION OF THE SINK & SOURCE TERM
 =  1172.    (WHEN MIN. R.F.=1)  AT K=   2, I=   1, J= 120

 MAXIMUM STEPSIZE WHICH MEETS STABILITY CRITERION OF THE DISPERSION TERM
 =  20.29    (WHEN MIN. R.F.=1)  AT K=   1, I=   1, J=  31
     1 CALLS TO GCG PACKAGE FOR TRANSPORT TIME STEP   4 IN FLOW TIME STEP 309 STRESS PERIOD   1
     5 TOTAL ITERATIONS
  MAXIMUM CONCENTRATION CHANGES FOR EACH ITERATION:
  MAX. CHANGE LAYER,ROW,COL MAX. CHANGE LAYER,ROW,COL MAX. CHANGE LAYER,ROW,COL MAX. CHANGE LAYER,ROW,COL MAX. CHANGE LAYER,ROW,COL
 ------------------------------------------------------------------------------------------------------------------------------------
   0.1435E-01 (  2,  1, 81)  0.2859E-03 (  2,  1, 81)  0.8197E-05 (  3,  1, 79)  0.2271E-06 (  3,  1, 77)  0.5123E-08 (  4,  1, 77)


                                          ================================================
                                                         FROM TIME =   3090.0     TO    3100.0    

 
 SOLVING FOR HEAD 
 FLOW MODEL IS TRANSIENT
 FLOW MODEL CONTAINS CONSTANT-HEAD CELLS


 MAXIMUM STEPSIZE DURING WHICH ANY PARTICLE CANNOT MOVE MORE THAN ONE CELL
 =  5.165    (WHEN MIN. R.F.=1)  AT K=   4, I=   1, J=  74

 MAXIMUM STEPSIZE WHICH MEETS STABILITY CRITERION OF THE ADVECTION TERM
 (FOR PURE FINITE-DIFFERENCE OPTION, MIXELM=0) 
 =  3.606    (WHEN MIN. R.F.=1)  AT K=   2, I=   1, J=  80


 TOTAL NUMBER OF POINT SOURCES/SINKS PRESENT IN THE FLOW MODEL =    62

 MAXIMUM STEPSIZE WHICH MEETS STABILITY CRITERION OF THE SINK & SOURCE TERM
 =  2187.    (WHEN MIN. R.F.=1)  AT K=   2, I=   1, J= 120

 MAXIMUM STEPSIZE WHICH MEETS STABILITY CRITERION OF THE DISPERSION TERM
 =  20.29    (WHEN MIN. R.F.=1)  AT K=   1, I=   1, J=  31


     1 CALLS TO GCG PACKAGE FOR TRANSPORT TIME STEP   1 IN FLOW TIME STEP 310 STRESS PERIOD   1
     6 TOTAL ITERATIONS

 NO OUTPUT CONTROL FOR STRESS PERIOD    1   TIME STEP 310
 
 SOLVING FOR HEAD 
 FLOW MODEL IS TRANSIENT
 FLOW MODEL CONTAINS CONSTANT-HEAD CELLS


 MAXIMUM STEPSIZE DURING WHICH ANY PARTICLE CANNOT MOVE MORE THAN ONE CELL
 =  5.244    (WHEN MIN. R.F.=1)  AT K=   5, I=   1, J=  74

 MAXIMUM STEPSIZE WHICH MEETS STABILITY CRITERION OF THE ADVECTION TERM
 (FOR PURE FINITE-DIFFERENCE OPTION, MIXELM=0) 
 =  3.749    (WHEN MIN. R.F.=1)  AT K=   2, I=   1, J=  80


 TOTAL NUMBER OF POINT SOURCES/SINKS PRESENT IN THE FLOW MODEL =    62

 MAXIMUM STEPSIZE WHICH MEETS STABILITY CRITERION OF THE SINK & SOURCE TERM
 =  1437.    (WHEN MIN. R.F.=1)  AT K=   2, I=   1, J= 120

 MAXIMUM STEPSIZE WHICH MEETS STABILITY CRITERION OF THE DISPERSION TERM
 =  20.29    (WHEN MIN. R.F.=1)  AT K=   1, I=   1, J=  31
     1 CALLS TO GCG PACKAGE FOR TRANSPORT TIME STEP   2 IN FLOW TIME STEP 310 STRESS PERIOD   1
     6 TOTAL ITERATIONS
 
 SOLVING FOR HEAD 
 FLOW MODEL IS TRANSIENT
 FLOW MODEL CONTAINS CONSTANT-HEAD CELLS


 MAXIMUM STEPSIZE DURING WHICH ANY PARTICLE CANNOT MOVE MORE THAN ONE CELL
 =  5.311    (WHEN MIN. R.F.=1)  AT K=   5, I=   1, J=  74

 MAXIMUM STEPSIZE WHICH MEETS STABILITY CRITERION OF THE ADVECTION TERM
 (FOR PURE FINITE-DIFFERENCE OPTION, MIXELM=0) 
 =  3.879    (WHEN MIN. R.F.=1)  AT K=   2, I=   1, J=  79


 TOTAL NUMBER OF POINT SOURCES/SINKS PRESENT IN THE FLOW MODEL =    62

 MAXIMUM STEPSIZE WHICH MEETS STABILITY CRITERION OF THE SINK & SOURCE TERM
 =  1269.    (WHEN MIN. R.F.=1)  AT K=   2, I=   1, J= 120

 MAXIMUM STEPSIZE WHICH MEETS STABILITY CRITERION OF THE DISPERSION TERM
 =  20.29    (WHEN MIN. R.F.=1)  AT K=   1, I=   1, J=  31
     1 CALLS TO GCG PACKAGE FOR TRANSPORT TIME STEP   3 IN FLOW TIME STEP 310 STRESS PERIOD   1
     6 TOTAL ITERATIONS
 
 SOLVING FOR HEAD 
 FLOW MODEL IS TRANSIENT
 FLOW MODEL CONTAINS CONSTANT-HEAD CELLS


 MAXIMUM STEPSIZE DURING WHICH ANY PARTICLE CANNOT MOVE MORE THAN ONE CELL
 =  5.425    (WHEN MIN. R.F.=1)  AT K=   5, I=   1, J=  74

 MAXIMUM STEPSIZE WHICH MEETS STABILITY CRITERION OF THE ADVECTION TERM
 (FOR PURE FINITE-DIFFERENCE OPTION, MIXELM=0) 
 =  3.628    (WHEN MIN. R.F.=1)  AT K=   2, I=   1, J=  79


 TOTAL NUMBER OF POINT SOURCES/SINKS PRESENT IN THE FLOW MODEL =    62

 MAXIMUM STEPSIZE WHICH MEETS STABILITY CRITERION OF THE SINK & SOURCE TERM
 =  1141.    (WHEN MIN. R.F.=1)  AT K=   2, I=   1, J= 120

 MAXIMUM STEPSIZE WHICH MEETS STABILITY CRITERION OF THE DISPERSION TERM
 =  20.29    (WHEN MIN. R.F.=1)  AT K=   1, I=   1, J=  31
     1 CALLS TO GCG PACKAGE FOR TRANSPORT TIME STEP   4 IN FLOW TIME STEP 310 STRESS PERIOD   1
     5 TOTAL ITERATIONS
  MAXIMUM CONCENTRATION CHANGES FOR EACH ITERATION:
  MAX. CHANGE LAYER,ROW,COL MAX. CHANGE LAYER,ROW,COL MAX. CHANGE LAYER,ROW,COL MAX. CHANGE LAYER,ROW,COL MAX. CHANGE LAYER,ROW,COL
 ------------------------------------------------------------------------------------------------------------------------------------
   0.1933E-01 (  2,  1, 81)  0.5774E-03 (  2,  1, 79)  0.2294E-04 (  2,  1, 76)  0.1385E-05 (  3,  1, 76)  0.4354E-07 (  4,  1, 76)


                                          ================================================
                                                         FROM TIME =   3100.0     TO    3110.0    

 
 SOLVING FOR HEAD 
 FLOW MODEL IS TRANSIENT
 FLOW MODEL CONTAINS CONSTANT-HEAD CELLS


 MAXIMUM STEPSIZE DURING WHICH ANY PARTICLE CANNOT MOVE MORE THAN ONE CELL
 =  5.524    (WHEN MIN. R.F.=1)  AT K=   5, I=   1, J=  74

 MAXIMUM STEPSIZE WHICH MEETS STABILITY CRITERION OF THE ADVECTION TERM
 (FOR PURE FINITE-DIFFERENCE OPTION, MIXELM=0) 
 =  3.568    (WHEN MIN. R.F.=1)  AT K=   2, I=   1, J=  79


 TOTAL NUMBER OF POINT SOURCES/SINKS PRESENT IN THE FLOW MODEL =    62

 MAXIMUM STEPSIZE WHICH MEETS STABILITY CRITERION OF THE SINK & SOURCE TERM
 =  1192.    (WHEN MIN. R.F.=1)  AT K=   2, I=   1, J= 120

 MAXIMUM STEPSIZE WHICH MEETS STABILITY CRITERION OF THE DISPERSION TERM
 =  20.29    (WHEN MIN. R.F.=1)  AT K=   1, I=   1, J=  31


     1 CALLS TO GCG PACKAGE FOR TRANSPORT TIME STEP   1 IN FLOW TIME STEP 311 STRESS PERIOD   1
     6 TOTAL ITERATIONS

 NO OUTPUT CONTROL FOR STRESS PERIOD    1   TIME STEP 311
 
 SOLVING FOR HEAD 
 FLOW MODEL IS TRANSIENT
 FLOW MODEL CONTAINS CONSTANT-HEAD CELLS


 MAXIMUM STEPSIZE DURING WHICH ANY PARTICLE CANNOT MOVE MORE THAN ONE CELL
 =  5.615    (WHEN MIN. R.F.=1)  AT K=   6, I=   1, J=  74

 MAXIMUM STEPSIZE WHICH MEETS STABILITY CRITERION OF THE ADVECTION TERM
 (FOR PURE FINITE-DIFFERENCE OPTION, MIXELM=0) 
 =  3.566    (WHEN MIN. R.F.=1)  AT K=   2, I=   1, J=  79


 TOTAL NUMBER OF POINT SOURCES/SINKS PRESENT IN THE FLOW MODEL =    62

 MAXIMUM STEPSIZE WHICH MEETS STABILITY CRITERION OF THE SINK & SOURCE TERM
 =  1076.    (WHEN MIN. R.F.=1)  AT K=   2, I=   1, J= 120

 MAXIMUM STEPSIZE WHICH MEETS STABILITY CRITERION OF THE DISPERSION TERM
 =  20.29    (WHEN MIN. R.F.=1)  AT K=   1, I=   1, J=  31
     1 CALLS TO GCG PACKAGE FOR TRANSPORT TIME STEP   2 IN FLOW TIME STEP 311 STRESS PERIOD   1
     6 TOTAL ITERATIONS
 
 SOLVING FOR HEAD 
 FLOW MODEL IS TRANSIENT
 FLOW MODEL CONTAINS CONSTANT-HEAD CELLS


 MAXIMUM STEPSIZE DURING WHICH ANY PARTICLE CANNOT MOVE MORE THAN ONE CELL
 =  5.740    (WHEN MIN. R.F.=1)  AT K=   6, I=   1, J=  74

 MAXIMUM STEPSIZE WHICH MEETS STABILITY CRITERION OF THE ADVECTION TERM
 (FOR PURE FINITE-DIFFERENCE OPTION, MIXELM=0) 
 =  3.698    (WHEN MIN. R.F.=1)  AT K=   2, I=   1, J=  79


 TOTAL NUMBER OF POINT SOURCES/SINKS PRESENT IN THE FLOW MODEL =    62

 MAXIMUM STEPSIZE WHICH MEETS STABILITY CRITERION OF THE SINK & SOURCE TERM
 =  1116.    (WHEN MIN. R.F.=1)  AT K=   2, I=   1, J= 120

 MAXIMUM STEPSIZE WHICH MEETS STABILITY CRITERION OF THE DISPERSION TERM
 =  20.29    (WHEN MIN. R.F.=1)  AT K=   1, I=   1, J=  31
     1 CALLS TO GCG PACKAGE FOR TRANSPORT TIME STEP   3 IN FLOW TIME STEP 311 STRESS PERIOD   1
     6 TOTAL ITERATIONS
 
 SOLVING FOR HEAD 
 FLOW MODEL IS TRANSIENT
 FLOW MODEL CONTAINS CONSTANT-HEAD CELLS


 MAXIMUM STEPSIZE DURING WHICH ANY PARTICLE CANNOT MOVE MORE THAN ONE CELL
 =  5.857    (WHEN MIN. R.F.=1)  AT K=   7, I=   1, J=  74

 MAXIMUM STEPSIZE WHICH MEETS STABILITY CRITERION OF THE ADVECTION TERM
 (FOR PURE FINITE-DIFFERENCE OPTION, MIXELM=0) 
 =  4.051    (WHEN MIN. R.F.=1)  AT K=   2, I=   1, J=  79


 TOTAL NUMBER OF POINT SOURCES/SINKS PRESENT IN THE FLOW MODEL =    62

 MAXIMUM STEPSIZE WHICH MEETS STABILITY CRITERION OF THE SINK & SOURCE TERM
 =  1065.    (WHEN MIN. R.F.=1)  AT K=   2, I=   1, J= 120

 MAXIMUM STEPSIZE WHICH MEETS STABILITY CRITERION OF THE DISPERSION TERM
 =  20.29    (WHEN MIN. R.F.=1)  AT K=   1, I=   1, J=  31
     1 CALLS TO GCG PACKAGE FOR TRANSPORT TIME STEP   4 IN FLOW TIME STEP 311 STRESS PERIOD   1
     5 TOTAL ITERATIONS
  MAXIMUM CONCENTRATION CHANGES FOR EACH ITERATION:
  MAX. CHANGE LAYER,ROW,COL MAX. CHANGE LAYER,ROW,COL MAX. CHANGE LAYER,ROW,COL MAX. CHANGE LAYER,ROW,COL MAX. CHANGE LAYER,ROW,COL
 ------------------------------------------------------------------------------------------------------------------------------------
   0.2278E-01 (  2,  1, 80)  0.7384E-03 (  2,  1, 78)  0.2937E-04 (  3,  1, 78)  0.1158E-05 (  3,  1, 76)  0.4231E-07 (  4,  1, 79)


                                          ================================================
                                                         FROM TIME =   3110.0     TO    3120.0    

 
 SOLVING FOR HEAD 
 FLOW MODEL IS TRANSIENT
 FLOW MODEL CONTAINS CONSTANT-HEAD CELLS


 MAXIMUM STEPSIZE DURING WHICH ANY PARTICLE CANNOT MOVE MORE THAN ONE CELL
 =  5.932    (WHEN MIN. R.F.=1)  AT K=   7, I=   1, J=  74

 MAXIMUM STEPSIZE WHICH MEETS STABILITY CRITERION OF THE ADVECTION TERM
 (FOR PURE FINITE-DIFFERENCE OPTION, MIXELM=0) 
 =  3.872    (WHEN MIN. R.F.=1)  AT K=   2, I=   1, J=  78


 TOTAL NUMBER OF POINT SOURCES/SINKS PRESENT IN THE FLOW MODEL =    62

 MAXIMUM STEPSIZE WHICH MEETS STABILITY CRITERION OF THE SINK & SOURCE TERM
 =  1058.    (WHEN MIN. R.F.=1)  AT K=   2, I=   1, J= 120

 MAXIMUM STEPSIZE WHICH MEETS STABILITY CRITERION OF THE DISPERSION TERM
 =  20.29    (WHEN MIN. R.F.=1)  AT K=   1, I=   1, J=  31


     1 CALLS TO GCG PACKAGE FOR TRANSPORT TIME STEP   1 IN FLOW TIME STEP 312 STRESS PERIOD   1
     6 TOTAL ITERATIONS

 NO OUTPUT CONTROL FOR STRESS PERIOD    1   TIME STEP 312
 
 SOLVING FOR HEAD 
 FLOW MODEL IS TRANSIENT
 FLOW MODEL CONTAINS CONSTANT-HEAD CELLS


 MAXIMUM STEPSIZE DURING WHICH ANY PARTICLE CANNOT MOVE MORE THAN ONE CELL
 =  5.988    (WHEN MIN. R.F.=1)  AT K=  28, I=   1, J=  54

 MAXIMUM STEPSIZE WHICH MEETS STABILITY CRITERION OF THE ADVECTION TERM
 (FOR PURE FINITE-DIFFERENCE OPTION, MIXELM=0) 
 =  3.675    (WHEN MIN. R.F.=1)  AT K=   2, I=   1, J=  78


 TOTAL NUMBER OF POINT SOURCES/SINKS PRESENT IN THE FLOW MODEL =    62

 MAXIMUM STEPSIZE WHICH MEETS STABILITY CRITERION OF THE SINK & SOURCE TERM
 =  870.2    (WHEN MIN. R.F.=1)  AT K=   2, I=   1, J= 120

 MAXIMUM STEPSIZE WHICH MEETS STABILITY CRITERION OF THE DISPERSION TERM
 =  20.29    (WHEN MIN. R.F.=1)  AT K=   1, I=   1, J=  31
     1 CALLS TO GCG PACKAGE FOR TRANSPORT TIME STEP   2 IN FLOW TIME STEP 312 STRESS PERIOD   1
     6 TOTAL ITERATIONS
 
 SOLVING FOR HEAD 
 FLOW MODEL IS TRANSIENT
 FLOW MODEL CONTAINS CONSTANT-HEAD CELLS


 MAXIMUM STEPSIZE DURING WHICH ANY PARTICLE CANNOT MOVE MORE THAN ONE CELL
 =  5.988    (WHEN MIN. R.F.=1)  AT K=  28, I=   1, J=  54

 MAXIMUM STEPSIZE WHICH MEETS STABILITY CRITERION OF THE ADVECTION TERM
 (FOR PURE FINITE-DIFFERENCE OPTION, MIXELM=0) 
 =  3.647    (WHEN MIN. R.F.=1)  AT K=   2, I=   1, J=  78


 TOTAL NUMBER OF POINT SOURCES/SINKS PRESENT IN THE FLOW MODEL =    62

 MAXIMUM STEPSIZE WHICH MEETS STABILITY CRITERION OF THE SINK & SOURCE TERM
 =  861.5    (WHEN MIN. R.F.=1)  AT K=   2, I=   1, J= 120

 MAXIMUM STEPSIZE WHICH MEETS STABILITY CRITERION OF THE DISPERSION TERM
 =  20.29    (WHEN MIN. R.F.=1)  AT K=   1, I=   1, J=  31
     1 CALLS TO GCG PACKAGE FOR TRANSPORT TIME STEP   3 IN FLOW TIME STEP 312 STRESS PERIOD   1
     6 TOTAL ITERATIONS
 
 SOLVING FOR HEAD 
 FLOW MODEL IS TRANSIENT
 FLOW MODEL CONTAINS CONSTANT-HEAD CELLS


 MAXIMUM STEPSIZE DURING WHICH ANY PARTICLE CANNOT MOVE MORE THAN ONE CELL
 =  5.990    (WHEN MIN. R.F.=1)  AT K=  28, I=   1, J=  54

 MAXIMUM STEPSIZE WHICH MEETS STABILITY CRITERION OF THE ADVECTION TERM
 (FOR PURE FINITE-DIFFERENCE OPTION, MIXELM=0) 
 =  3.742    (WHEN MIN. R.F.=1)  AT K=   2, I=   1, J=  78


 TOTAL NUMBER OF POINT SOURCES/SINKS PRESENT IN THE FLOW MODEL =    62

 MAXIMUM STEPSIZE WHICH MEETS STABILITY CRITERION OF THE SINK & SOURCE TERM
 =  854.5    (WHEN MIN. R.F.=1)  AT K=   2, I=   1, J= 120

 MAXIMUM STEPSIZE WHICH MEETS STABILITY CRITERION OF THE DISPERSION TERM
 =  20.29    (WHEN MIN. R.F.=1)  AT K=   1, I=   1, J=  31
     1 CALLS TO GCG PACKAGE FOR TRANSPORT TIME STEP   4 IN FLOW TIME STEP 312 STRESS PERIOD   1
     5 TOTAL ITERATIONS
  MAXIMUM CONCENTRATION CHANGES FOR EACH ITERATION:
  MAX. CHANGE LAYER,ROW,COL MAX. CHANGE LAYER,ROW,COL MAX. CHANGE LAYER,ROW,COL MAX. CHANGE LAYER,ROW,COL MAX. CHANGE LAYER,ROW,COL
 ------------------------------------------------------------------------------------------------------------------------------------
   0.1646E-01 (  2,  1, 79)  0.2965E-03 (  2,  1, 79)  0.8658E-05 (  3,  1, 77)  0.2655E-06 (  3,  1, 80)  0.6066E-08 (  3,  1, 88)


                                          ================================================
                                                         FROM TIME =   3120.0     TO    3130.0    

 
 SOLVING FOR HEAD 
 FLOW MODEL IS TRANSIENT
 FLOW MODEL CONTAINS CONSTANT-HEAD CELLS


 MAXIMUM STEPSIZE DURING WHICH ANY PARTICLE CANNOT MOVE MORE THAN ONE CELL
 =  5.997    (WHEN MIN. R.F.=1)  AT K=  28, I=   1, J=  54

 MAXIMUM STEPSIZE WHICH MEETS STABILITY CRITERION OF THE ADVECTION TERM
 (FOR PURE FINITE-DIFFERENCE OPTION, MIXELM=0) 
 =  3.851    (WHEN MIN. R.F.=1)  AT K=   2, I=   1, J=  78


 TOTAL NUMBER OF POINT SOURCES/SINKS PRESENT IN THE FLOW MODEL =    62

 MAXIMUM STEPSIZE WHICH MEETS STABILITY CRITERION OF THE SINK & SOURCE TERM
 =  944.1    (WHEN MIN. R.F.=1)  AT K=   2, I=   1, J= 120

 MAXIMUM STEPSIZE WHICH MEETS STABILITY CRITERION OF THE DISPERSION TERM
 =  20.29    (WHEN MIN. R.F.=1)  AT K=   1, I=   1, J=  31


     1 CALLS TO GCG PACKAGE FOR TRANSPORT TIME STEP   1 IN FLOW TIME STEP 313 STRESS PERIOD   1
     6 TOTAL ITERATIONS

 NO OUTPUT CONTROL FOR STRESS PERIOD    1   TIME STEP 313
 
 SOLVING FOR HEAD 
 FLOW MODEL IS TRANSIENT
 FLOW MODEL CONTAINS CONSTANT-HEAD CELLS


 MAXIMUM STEPSIZE DURING WHICH ANY PARTICLE CANNOT MOVE MORE THAN ONE CELL
 =  6.000    (WHEN MIN. R.F.=1)  AT K=  28, I=   1, J=  54

 MAXIMUM STEPSIZE WHICH MEETS STABILITY CRITERION OF THE ADVECTION TERM
 (FOR PURE FINITE-DIFFERENCE OPTION, MIXELM=0) 
 =  4.172    (WHEN MIN. R.F.=1)  AT K=  30, I=   1, J=  27


 TOTAL NUMBER OF POINT SOURCES/SINKS PRESENT IN THE FLOW MODEL =    62

 MAXIMUM STEPSIZE WHICH MEETS STABILITY CRITERION OF THE SINK & SOURCE TERM
 =  741.7    (WHEN MIN. R.F.=1)  AT K=   2, I=   1, J= 120

 MAXIMUM STEPSIZE WHICH MEETS STABILITY CRITERION OF THE DISPERSION TERM
 =  20.29    (WHEN MIN. R.F.=1)  AT K=   1, I=   1, J=  31
     1 CALLS TO GCG PACKAGE FOR TRANSPORT TIME STEP   2 IN FLOW TIME STEP 313 STRESS PERIOD   1
     6 TOTAL ITERATIONS
 
 SOLVING FOR HEAD 
 FLOW MODEL IS TRANSIENT
 FLOW MODEL CONTAINS CONSTANT-HEAD CELLS


 MAXIMUM STEPSIZE DURING WHICH ANY PARTICLE CANNOT MOVE MORE THAN ONE CELL
 =  6.001    (WHEN MIN. R.F.=1)  AT K=  28, I=   1, J=  54

 MAXIMUM STEPSIZE WHICH MEETS STABILITY CRITERION OF THE ADVECTION TERM
 (FOR PURE FINITE-DIFFERENCE OPTION, MIXELM=0) 
 =  3.944    (WHEN MIN. R.F.=1)  AT K=   2, I=   1, J=  77


 TOTAL NUMBER OF POINT SOURCES/SINKS PRESENT IN THE FLOW MODEL =    62

 MAXIMUM STEPSIZE WHICH MEETS STABILITY CRITERION OF THE SINK & SOURCE TERM
 =  642.0    (WHEN MIN. R.F.=1)  AT K=   2, I=   1, J= 120

 MAXIMUM STEPSIZE WHICH MEETS STABILITY CRITERION OF THE DISPERSION TERM
 =  20.29    (WHEN MIN. R.F.=1)  AT K=   1, I=   1, J=  31
     1 CALLS TO GCG PACKAGE FOR TRANSPORT TIME STEP   3 IN FLOW TIME STEP 313 STRESS PERIOD   1
     6 TOTAL ITERATIONS
 
 SOLVING FOR HEAD 
 FLOW MODEL IS TRANSIENT
 FLOW MODEL CONTAINS CONSTANT-HEAD CELLS


 MAXIMUM STEPSIZE DURING WHICH ANY PARTICLE CANNOT MOVE MORE THAN ONE CELL
 =  6.000    (WHEN MIN. R.F.=1)  AT K=  28, I=   1, J=  54

 MAXIMUM STEPSIZE WHICH MEETS STABILITY CRITERION OF THE ADVECTION TERM
 (FOR PURE FINITE-DIFFERENCE OPTION, MIXELM=0) 
 =  3.794    (WHEN MIN. R.F.=1)  AT K=   2, I=   1, J=  77


 TOTAL NUMBER OF POINT SOURCES/SINKS PRESENT IN THE FLOW MODEL =    62

 MAXIMUM STEPSIZE WHICH MEETS STABILITY CRITERION OF THE SINK & SOURCE TERM
 =  578.5    (WHEN MIN. R.F.=1)  AT K=   2, I=   1, J= 120

 MAXIMUM STEPSIZE WHICH MEETS STABILITY CRITERION OF THE DISPERSION TERM
 =  20.29    (WHEN MIN. R.F.=1)  AT K=   1, I=   1, J=  31
     1 CALLS TO GCG PACKAGE FOR TRANSPORT TIME STEP   4 IN FLOW TIME STEP 313 STRESS PERIOD   1
     5 TOTAL ITERATIONS
  MAXIMUM CONCENTRATION CHANGES FOR EACH ITERATION:
  MAX. CHANGE LAYER,ROW,COL MAX. CHANGE LAYER,ROW,COL MAX. CHANGE LAYER,ROW,COL MAX. CHANGE LAYER,ROW,COL MAX. CHANGE LAYER,ROW,COL
 ------------------------------------------------------------------------------------------------------------------------------------
   0.1280E-01 (  2,  1, 37)  0.2691E-03 (  2,  1, 77)  0.5846E-05 (  3,  1, 75)  0.1415E-06 (  3,  1, 79)  0.3824E-08 (  4,  1, 78)


                                          ================================================
                                                         FROM TIME =   3130.0     TO    3140.0    

 
 SOLVING FOR HEAD 
 FLOW MODEL IS TRANSIENT
 FLOW MODEL CONTAINS CONSTANT-HEAD CELLS


 MAXIMUM STEPSIZE DURING WHICH ANY PARTICLE CANNOT MOVE MORE THAN ONE CELL
 =  6.006    (WHEN MIN. R.F.=1)  AT K=  28, I=   1, J=  54

 MAXIMUM STEPSIZE WHICH MEETS STABILITY CRITERION OF THE ADVECTION TERM
 (FOR PURE FINITE-DIFFERENCE OPTION, MIXELM=0) 
 =  3.788    (WHEN MIN. R.F.=1)  AT K=   2, I=   1, J=  77


 TOTAL NUMBER OF POINT SOURCES/SINKS PRESENT IN THE FLOW MODEL =    62

 MAXIMUM STEPSIZE WHICH MEETS STABILITY CRITERION OF THE SINK & SOURCE TERM
 =  664.7    (WHEN MIN. R.F.=1)  AT K=   2, I=   1, J= 120

 MAXIMUM STEPSIZE WHICH MEETS STABILITY CRITERION OF THE DISPERSION TERM
 =  20.29    (WHEN MIN. R.F.=1)  AT K=   1, I=   1, J=  31


     1 CALLS TO GCG PACKAGE FOR TRANSPORT TIME STEP   1 IN FLOW TIME STEP 314 STRESS PERIOD   1
     6 TOTAL ITERATIONS

 NO OUTPUT CONTROL FOR STRESS PERIOD    1   TIME STEP 314
 
 SOLVING FOR HEAD 
 FLOW MODEL IS TRANSIENT
 FLOW MODEL CONTAINS CONSTANT-HEAD CELLS


 MAXIMUM STEPSIZE DURING WHICH ANY PARTICLE CANNOT MOVE MORE THAN ONE CELL
 =  6.008    (WHEN MIN. R.F.=1)  AT K=  28, I=   1, J=  54

 MAXIMUM STEPSIZE WHICH MEETS STABILITY CRITERION OF THE ADVECTION TERM
 (FOR PURE FINITE-DIFFERENCE OPTION, MIXELM=0) 
 =  3.834    (WHEN MIN. R.F.=1)  AT K=   2, I=   1, J=  77


 TOTAL NUMBER OF POINT SOURCES/SINKS PRESENT IN THE FLOW MODEL =    62

 MAXIMUM STEPSIZE WHICH MEETS STABILITY CRITERION OF THE SINK & SOURCE TERM
 =  561.3    (WHEN MIN. R.F.=1)  AT K=   2, I=   1, J= 120

 MAXIMUM STEPSIZE WHICH MEETS STABILITY CRITERION OF THE DISPERSION TERM
 =  20.29    (WHEN MIN. R.F.=1)  AT K=   1, I=   1, J=  31
     1 CALLS TO GCG PACKAGE FOR TRANSPORT TIME STEP   2 IN FLOW TIME STEP 314 STRESS PERIOD   1
     6 TOTAL ITERATIONS
 
 SOLVING FOR HEAD 
 FLOW MODEL IS TRANSIENT
 FLOW MODEL CONTAINS CONSTANT-HEAD CELLS


 MAXIMUM STEPSIZE DURING WHICH ANY PARTICLE CANNOT MOVE MORE THAN ONE CELL
 =  6.009    (WHEN MIN. R.F.=1)  AT K=  28, I=   1, J=  54

 MAXIMUM STEPSIZE WHICH MEETS STABILITY CRITERION OF THE ADVECTION TERM
 (FOR PURE FINITE-DIFFERENCE OPTION, MIXELM=0) 
 =  3.995    (WHEN MIN. R.F.=1)  AT K=   2, I=   1, J=  77


 TOTAL NUMBER OF POINT SOURCES/SINKS PRESENT IN THE FLOW MODEL =    62

 MAXIMUM STEPSIZE WHICH MEETS STABILITY CRITERION OF THE SINK & SOURCE TERM
 =  507.4    (WHEN MIN. R.F.=1)  AT K=   2, I=   1, J= 120

 MAXIMUM STEPSIZE WHICH MEETS STABILITY CRITERION OF THE DISPERSION TERM
 =  20.29    (WHEN MIN. R.F.=1)  AT K=   1, I=   1, J=  31
     1 CALLS TO GCG PACKAGE FOR TRANSPORT TIME STEP   3 IN FLOW TIME STEP 314 STRESS PERIOD   1
     6 TOTAL ITERATIONS
 
 SOLVING FOR HEAD 
 FLOW MODEL IS TRANSIENT
 FLOW MODEL CONTAINS CONSTANT-HEAD CELLS


 MAXIMUM STEPSIZE DURING WHICH ANY PARTICLE CANNOT MOVE MORE THAN ONE CELL
 =  6.010    (WHEN MIN. R.F.=1)  AT K=  28, I=   1, J=  54

 MAXIMUM STEPSIZE WHICH MEETS STABILITY CRITERION OF THE ADVECTION TERM
 (FOR PURE FINITE-DIFFERENCE OPTION, MIXELM=0) 
 =  4.168    (WHEN MIN. R.F.=1)  AT K=  30, I=   1, J=  26


 TOTAL NUMBER OF POINT SOURCES/SINKS PRESENT IN THE FLOW MODEL =    62

 MAXIMUM STEPSIZE WHICH MEETS STABILITY CRITERION OF THE SINK & SOURCE TERM
 =  451.9    (WHEN MIN. R.F.=1)  AT K=   2, I=   1, J= 120

 MAXIMUM STEPSIZE WHICH MEETS STABILITY CRITERION OF THE DISPERSION TERM
 =  20.29    (WHEN MIN. R.F.=1)  AT K=   1, I=   1, J=  31
     1 CALLS TO GCG PACKAGE FOR TRANSPORT TIME STEP   4 IN FLOW TIME STEP 314 STRESS PERIOD   1
     5 TOTAL ITERATIONS
  MAXIMUM CONCENTRATION CHANGES FOR EACH ITERATION:
  MAX. CHANGE LAYER,ROW,COL MAX. CHANGE LAYER,ROW,COL MAX. CHANGE LAYER,ROW,COL MAX. CHANGE LAYER,ROW,COL MAX. CHANGE LAYER,ROW,COL
 ------------------------------------------------------------------------------------------------------------------------------------
   0.1701E-01 (  2,  1, 78)  0.4089E-03 (  2,  1, 76)  0.9274E-05 (  2,  1, 75)  0.3479E-06 (  3,  1, 79)  0.1209E-07 (  4,  1, 75)


                                          ================================================
                                                         FROM TIME =   3140.0     TO    3150.0    

 
 SOLVING FOR HEAD 
 FLOW MODEL IS TRANSIENT
 FLOW MODEL CONTAINS CONSTANT-HEAD CELLS


 MAXIMUM STEPSIZE DURING WHICH ANY PARTICLE CANNOT MOVE MORE THAN ONE CELL
 =  6.017    (WHEN MIN. R.F.=1)  AT K=  28, I=   1, J=  54

 MAXIMUM STEPSIZE WHICH MEETS STABILITY CRITERION OF THE ADVECTION TERM
 (FOR PURE FINITE-DIFFERENCE OPTION, MIXELM=0) 
 =  4.212    (WHEN MIN. R.F.=1)  AT K=  30, I=   1, J=  26


 TOTAL NUMBER OF POINT SOURCES/SINKS PRESENT IN THE FLOW MODEL =    62

 MAXIMUM STEPSIZE WHICH MEETS STABILITY CRITERION OF THE SINK & SOURCE TERM
 =  434.0    (WHEN MIN. R.F.=1)  AT K=   2, I=   1, J= 120

 MAXIMUM STEPSIZE WHICH MEETS STABILITY CRITERION OF THE DISPERSION TERM
 =  20.29    (WHEN MIN. R.F.=1)  AT K=   1, I=   1, J=  31


     1 CALLS TO GCG PACKAGE FOR TRANSPORT TIME STEP   1 IN FLOW TIME STEP 315 STRESS PERIOD   1
     6 TOTAL ITERATIONS

 NO OUTPUT CONTROL FOR STRESS PERIOD    1   TIME STEP 315
 
 SOLVING FOR HEAD 
 FLOW MODEL IS TRANSIENT
 FLOW MODEL CONTAINS CONSTANT-HEAD CELLS


 MAXIMUM STEPSIZE DURING WHICH ANY PARTICLE CANNOT MOVE MORE THAN ONE CELL
 =  6.015    (WHEN MIN. R.F.=1)  AT K=  28, I=   1, J=  54

 MAXIMUM STEPSIZE WHICH MEETS STABILITY CRITERION OF THE ADVECTION TERM
 (FOR PURE FINITE-DIFFERENCE OPTION, MIXELM=0) 
 =  4.091    (WHEN MIN. R.F.=1)  AT K=   2, I=   1, J=  40


 TOTAL NUMBER OF POINT SOURCES/SINKS PRESENT IN THE FLOW MODEL =    62

 MAXIMUM STEPSIZE WHICH MEETS STABILITY CRITERION OF THE SINK & SOURCE TERM
 =  376.9    (WHEN MIN. R.F.=1)  AT K=   2, I=   1, J= 120

 MAXIMUM STEPSIZE WHICH MEETS STABILITY CRITERION OF THE DISPERSION TERM
 =  20.29    (WHEN MIN. R.F.=1)  AT K=   1, I=   1, J=  31
     1 CALLS TO GCG PACKAGE FOR TRANSPORT TIME STEP   2 IN FLOW TIME STEP 315 STRESS PERIOD   1
     6 TOTAL ITERATIONS
 
 SOLVING FOR HEAD 
 FLOW MODEL IS TRANSIENT
 FLOW MODEL CONTAINS CONSTANT-HEAD CELLS


 MAXIMUM STEPSIZE DURING WHICH ANY PARTICLE CANNOT MOVE MORE THAN ONE CELL
 =  6.011    (WHEN MIN. R.F.=1)  AT K=  28, I=   1, J=  54

 MAXIMUM STEPSIZE WHICH MEETS STABILITY CRITERION OF THE ADVECTION TERM
 (FOR PURE FINITE-DIFFERENCE OPTION, MIXELM=0) 
 =  4.031    (WHEN MIN. R.F.=1)  AT K=   2, I=   1, J=  40


 TOTAL NUMBER OF POINT SOURCES/SINKS PRESENT IN THE FLOW MODEL =    62

 MAXIMUM STEPSIZE WHICH MEETS STABILITY CRITERION OF THE SINK & SOURCE TERM
 =  365.9    (WHEN MIN. R.F.=1)  AT K=   2, I=   1, J= 120

 MAXIMUM STEPSIZE WHICH MEETS STABILITY CRITERION OF THE DISPERSION TERM
 =  20.29    (WHEN MIN. R.F.=1)  AT K=   1, I=   1, J=  31
     1 CALLS TO GCG PACKAGE FOR TRANSPORT TIME STEP   3 IN FLOW TIME STEP 315 STRESS PERIOD   1
     6 TOTAL ITERATIONS
 
 SOLVING FOR HEAD 
 FLOW MODEL IS TRANSIENT
 FLOW MODEL CONTAINS CONSTANT-HEAD CELLS


 MAXIMUM STEPSIZE DURING WHICH ANY PARTICLE CANNOT MOVE MORE THAN ONE CELL
 =  6.010    (WHEN MIN. R.F.=1)  AT K=  28, I=   1, J=  54

 MAXIMUM STEPSIZE WHICH MEETS STABILITY CRITERION OF THE ADVECTION TERM
 (FOR PURE FINITE-DIFFERENCE OPTION, MIXELM=0) 
 =  4.228    (WHEN MIN. R.F.=1)  AT K=   2, I=   1, J=  76


 TOTAL NUMBER OF POINT SOURCES/SINKS PRESENT IN THE FLOW MODEL =    62

 MAXIMUM STEPSIZE WHICH MEETS STABILITY CRITERION OF THE SINK & SOURCE TERM
 =  342.5    (WHEN MIN. R.F.=1)  AT K=   2, I=   1, J= 120

 MAXIMUM STEPSIZE WHICH MEETS STABILITY CRITERION OF THE DISPERSION TERM
 =  20.29    (WHEN MIN. R.F.=1)  AT K=   1, I=   1, J=  31
     1 CALLS TO GCG PACKAGE FOR TRANSPORT TIME STEP   4 IN FLOW TIME STEP 315 STRESS PERIOD   1
     4 TOTAL ITERATIONS
  MAXIMUM CONCENTRATION CHANGES FOR EACH ITERATION:
  MAX. CHANGE LAYER,ROW,COL MAX. CHANGE LAYER,ROW,COL MAX. CHANGE LAYER,ROW,COL MAX. CHANGE LAYER,ROW,COL MAX. CHANGE LAYER,ROW,COL
 ------------------------------------------------------------------------------------------------------------------------------------
   0.7522E-02 (  2,  1, 39)  0.7840E-04 (  2,  1, 77)  0.1189E-05 (  2,  1, 78)  0.1858E-07 (  3,  1, 78)


                                          ================================================
                                                         FROM TIME =   3150.0     TO    3160.0    

 
 SOLVING FOR HEAD 
 FLOW MODEL IS TRANSIENT
 FLOW MODEL CONTAINS CONSTANT-HEAD CELLS


 MAXIMUM STEPSIZE DURING WHICH ANY PARTICLE CANNOT MOVE MORE THAN ONE CELL
 =  6.014    (WHEN MIN. R.F.=1)  AT K=  28, I=   1, J=  54

 MAXIMUM STEPSIZE WHICH MEETS STABILITY CRITERION OF THE ADVECTION TERM
 (FOR PURE FINITE-DIFFERENCE OPTION, MIXELM=0) 
 =  4.256    (WHEN MIN. R.F.=1)  AT K=   2, I=   1, J=  76


 TOTAL NUMBER OF POINT SOURCES/SINKS PRESENT IN THE FLOW MODEL =    62

 MAXIMUM STEPSIZE WHICH MEETS STABILITY CRITERION OF THE SINK & SOURCE TERM
 =  358.8    (WHEN MIN. R.F.=1)  AT K=   2, I=   1, J= 120

 MAXIMUM STEPSIZE WHICH MEETS STABILITY CRITERION OF THE DISPERSION TERM
 =  20.29    (WHEN MIN. R.F.=1)  AT K=   1, I=   1, J=  31


     1 CALLS TO GCG PACKAGE FOR TRANSPORT TIME STEP   1 IN FLOW TIME STEP 316 STRESS PERIOD   1
     6 TOTAL ITERATIONS

 NO OUTPUT CONTROL FOR STRESS PERIOD    1   TIME STEP 316
 
 SOLVING FOR HEAD 
 FLOW MODEL IS TRANSIENT
 FLOW MODEL CONTAINS CONSTANT-HEAD CELLS


 MAXIMUM STEPSIZE DURING WHICH ANY PARTICLE CANNOT MOVE MORE THAN ONE CELL
 =  5.859    (WHEN MIN. R.F.=1)  AT K=   4, I=   1, J=  48

 MAXIMUM STEPSIZE WHICH MEETS STABILITY CRITERION OF THE ADVECTION TERM
 (FOR PURE FINITE-DIFFERENCE OPTION, MIXELM=0) 
 =  3.916    (WHEN MIN. R.F.=1)  AT K=   2, I=   1, J=  41


 TOTAL NUMBER OF POINT SOURCES/SINKS PRESENT IN THE FLOW MODEL =    62

 MAXIMUM STEPSIZE WHICH MEETS STABILITY CRITERION OF THE SINK & SOURCE TERM
 =  307.1    (WHEN MIN. R.F.=1)  AT K=   2, I=   1, J= 120

 MAXIMUM STEPSIZE WHICH MEETS STABILITY CRITERION OF THE DISPERSION TERM
 =  20.29    (WHEN MIN. R.F.=1)  AT K=   1, I=   1, J=  31
     1 CALLS TO GCG PACKAGE FOR TRANSPORT TIME STEP   2 IN FLOW TIME STEP 316 STRESS PERIOD   1
     6 TOTAL ITERATIONS
 
 SOLVING FOR HEAD 
 FLOW MODEL IS TRANSIENT
 FLOW MODEL CONTAINS CONSTANT-HEAD CELLS


 MAXIMUM STEPSIZE DURING WHICH ANY PARTICLE CANNOT MOVE MORE THAN ONE CELL
 =  5.716    (WHEN MIN. R.F.=1)  AT K=   4, I=   1, J=  48

 MAXIMUM STEPSIZE WHICH MEETS STABILITY CRITERION OF THE ADVECTION TERM
 (FOR PURE FINITE-DIFFERENCE OPTION, MIXELM=0) 
 =  3.786    (WHEN MIN. R.F.=1)  AT K=   2, I=   1, J=  41


 TOTAL NUMBER OF POINT SOURCES/SINKS PRESENT IN THE FLOW MODEL =    62

 MAXIMUM STEPSIZE WHICH MEETS STABILITY CRITERION OF THE SINK & SOURCE TERM
 =  282.6    (WHEN MIN. R.F.=1)  AT K=   2, I=   1, J= 120

 MAXIMUM STEPSIZE WHICH MEETS STABILITY CRITERION OF THE DISPERSION TERM
 =  20.29    (WHEN MIN. R.F.=1)  AT K=   1, I=   1, J=  31
     1 CALLS TO GCG PACKAGE FOR TRANSPORT TIME STEP   3 IN FLOW TIME STEP 316 STRESS PERIOD   1
     6 TOTAL ITERATIONS
 
 SOLVING FOR HEAD 
 FLOW MODEL IS TRANSIENT
 FLOW MODEL CONTAINS CONSTANT-HEAD CELLS


 MAXIMUM STEPSIZE DURING WHICH ANY PARTICLE CANNOT MOVE MORE THAN ONE CELL
 =  5.604    (WHEN MIN. R.F.=1)  AT K=   4, I=   1, J=  48

 MAXIMUM STEPSIZE WHICH MEETS STABILITY CRITERION OF THE ADVECTION TERM
 (FOR PURE FINITE-DIFFERENCE OPTION, MIXELM=0) 
 =  3.830    (WHEN MIN. R.F.=1)  AT K=   2, I=   1, J=  41


 TOTAL NUMBER OF POINT SOURCES/SINKS PRESENT IN THE FLOW MODEL =    62

 MAXIMUM STEPSIZE WHICH MEETS STABILITY CRITERION OF THE SINK & SOURCE TERM
 =  269.5    (WHEN MIN. R.F.=1)  AT K=   2, I=   1, J= 120

 MAXIMUM STEPSIZE WHICH MEETS STABILITY CRITERION OF THE DISPERSION TERM
 =  20.29    (WHEN MIN. R.F.=1)  AT K=   1, I=   1, J=  31
     1 CALLS TO GCG PACKAGE FOR TRANSPORT TIME STEP   4 IN FLOW TIME STEP 316 STRESS PERIOD   1
     4 TOTAL ITERATIONS
  MAXIMUM CONCENTRATION CHANGES FOR EACH ITERATION:
  MAX. CHANGE LAYER,ROW,COL MAX. CHANGE LAYER,ROW,COL MAX. CHANGE LAYER,ROW,COL MAX. CHANGE LAYER,ROW,COL MAX. CHANGE LAYER,ROW,COL
 ------------------------------------------------------------------------------------------------------------------------------------
   0.7931E-02 (  2,  1, 83)  0.1024E-03 (  2,  1, 83)  0.1449E-05 (  3,  1, 42)  0.2217E-07 (  3,  1, 84)


                                          ================================================
                                                         FROM TIME =   3160.0     TO    3170.0    

 
 SOLVING FOR HEAD 
 FLOW MODEL IS TRANSIENT
 FLOW MODEL CONTAINS CONSTANT-HEAD CELLS


 MAXIMUM STEPSIZE DURING WHICH ANY PARTICLE CANNOT MOVE MORE THAN ONE CELL
 =  5.579    (WHEN MIN. R.F.=1)  AT K=   4, I=   1, J=  48

 MAXIMUM STEPSIZE WHICH MEETS STABILITY CRITERION OF THE ADVECTION TERM
 (FOR PURE FINITE-DIFFERENCE OPTION, MIXELM=0) 
 =  3.875    (WHEN MIN. R.F.=1)  AT K=   2, I=   1, J=  41


 TOTAL NUMBER OF POINT SOURCES/SINKS PRESENT IN THE FLOW MODEL =    62

 MAXIMUM STEPSIZE WHICH MEETS STABILITY CRITERION OF THE SINK & SOURCE TERM
 =  293.1    (WHEN MIN. R.F.=1)  AT K=   2, I=   1, J= 120

 MAXIMUM STEPSIZE WHICH MEETS STABILITY CRITERION OF THE DISPERSION TERM
 =  20.29    (WHEN MIN. R.F.=1)  AT K=   1, I=   1, J=  31


     1 CALLS TO GCG PACKAGE FOR TRANSPORT TIME STEP   1 IN FLOW TIME STEP 317 STRESS PERIOD   1
     6 TOTAL ITERATIONS

 NO OUTPUT CONTROL FOR STRESS PERIOD    1   TIME STEP 317
 
 SOLVING FOR HEAD 
 FLOW MODEL IS TRANSIENT
 FLOW MODEL CONTAINS CONSTANT-HEAD CELLS


 MAXIMUM STEPSIZE DURING WHICH ANY PARTICLE CANNOT MOVE MORE THAN ONE CELL
 =  5.496    (WHEN MIN. R.F.=1)  AT K=   4, I=   1, J=  48

 MAXIMUM STEPSIZE WHICH MEETS STABILITY CRITERION OF THE ADVECTION TERM
 (FOR PURE FINITE-DIFFERENCE OPTION, MIXELM=0) 
 =  4.094    (WHEN MIN. R.F.=1)  AT K=   2, I=   1, J=  42


 TOTAL NUMBER OF POINT SOURCES/SINKS PRESENT IN THE FLOW MODEL =    62

 MAXIMUM STEPSIZE WHICH MEETS STABILITY CRITERION OF THE SINK & SOURCE TERM
 =  262.4    (WHEN MIN. R.F.=1)  AT K=   2, I=   1, J= 120

 MAXIMUM STEPSIZE WHICH MEETS STABILITY CRITERION OF THE DISPERSION TERM
 =  20.29    (WHEN MIN. R.F.=1)  AT K=   1, I=   1, J=  31
     1 CALLS TO GCG PACKAGE FOR TRANSPORT TIME STEP   2 IN FLOW TIME STEP 317 STRESS PERIOD   1
     6 TOTAL ITERATIONS
 
 SOLVING FOR HEAD 
 FLOW MODEL IS TRANSIENT
 FLOW MODEL CONTAINS CONSTANT-HEAD CELLS


 MAXIMUM STEPSIZE DURING WHICH ANY PARTICLE CANNOT MOVE MORE THAN ONE CELL
 =  5.437    (WHEN MIN. R.F.=1)  AT K=   4, I=   1, J=  48

 MAXIMUM STEPSIZE WHICH MEETS STABILITY CRITERION OF THE ADVECTION TERM
 (FOR PURE FINITE-DIFFERENCE OPTION, MIXELM=0) 
 =  3.815    (WHEN MIN. R.F.=1)  AT K=   2, I=   1, J=  42


 TOTAL NUMBER OF POINT SOURCES/SINKS PRESENT IN THE FLOW MODEL =    62

 MAXIMUM STEPSIZE WHICH MEETS STABILITY CRITERION OF THE SINK & SOURCE TERM
 =  245.5    (WHEN MIN. R.F.=1)  AT K=   2, I=   1, J= 120

 MAXIMUM STEPSIZE WHICH MEETS STABILITY CRITERION OF THE DISPERSION TERM
 =  20.29    (WHEN MIN. R.F.=1)  AT K=   1, I=   1, J=  31
     1 CALLS TO GCG PACKAGE FOR TRANSPORT TIME STEP   3 IN FLOW TIME STEP 317 STRESS PERIOD   1
     6 TOTAL ITERATIONS
 
 SOLVING FOR HEAD 
 FLOW MODEL IS TRANSIENT
 FLOW MODEL CONTAINS CONSTANT-HEAD CELLS


 MAXIMUM STEPSIZE DURING WHICH ANY PARTICLE CANNOT MOVE MORE THAN ONE CELL
 =  5.398    (WHEN MIN. R.F.=1)  AT K=   4, I=   1, J=  48

 MAXIMUM STEPSIZE WHICH MEETS STABILITY CRITERION OF THE ADVECTION TERM
 (FOR PURE FINITE-DIFFERENCE OPTION, MIXELM=0) 
 =  3.720    (WHEN MIN. R.F.=1)  AT K=   2, I=   1, J=  42


 TOTAL NUMBER OF POINT SOURCES/SINKS PRESENT IN THE FLOW MODEL =    62

 MAXIMUM STEPSIZE WHICH MEETS STABILITY CRITERION OF THE SINK & SOURCE TERM
 =  233.5    (WHEN MIN. R.F.=1)  AT K=   2, I=   1, J= 120

 MAXIMUM STEPSIZE WHICH MEETS STABILITY CRITERION OF THE DISPERSION TERM
 =  20.29    (WHEN MIN. R.F.=1)  AT K=   1, I=   1, J=  31
     1 CALLS TO GCG PACKAGE FOR TRANSPORT TIME STEP   4 IN FLOW TIME STEP 317 STRESS PERIOD   1
     5 TOTAL ITERATIONS
  MAXIMUM CONCENTRATION CHANGES FOR EACH ITERATION:
  MAX. CHANGE LAYER,ROW,COL MAX. CHANGE LAYER,ROW,COL MAX. CHANGE LAYER,ROW,COL MAX. CHANGE LAYER,ROW,COL MAX. CHANGE LAYER,ROW,COL
 ------------------------------------------------------------------------------------------------------------------------------------
   0.1282E-01 (  2,  1, 76)  0.2406E-03 (  2,  1, 82)  0.6050E-05 (  3,  1, 43)  0.2104E-06 (  3,  1, 45)  0.4589E-08 (  4,  1, 45)


                                          ================================================
                                                         FROM TIME =   3170.0     TO    3180.0    

 
 SOLVING FOR HEAD 
 FLOW MODEL IS TRANSIENT
 FLOW MODEL CONTAINS CONSTANT-HEAD CELLS


 MAXIMUM STEPSIZE DURING WHICH ANY PARTICLE CANNOT MOVE MORE THAN ONE CELL
 =  5.393    (WHEN MIN. R.F.=1)  AT K=   4, I=   1, J=  48

 MAXIMUM STEPSIZE WHICH MEETS STABILITY CRITERION OF THE ADVECTION TERM
 (FOR PURE FINITE-DIFFERENCE OPTION, MIXELM=0) 
 =  3.725    (WHEN MIN. R.F.=1)  AT K=   2, I=   1, J=  42


 TOTAL NUMBER OF POINT SOURCES/SINKS PRESENT IN THE FLOW MODEL =    62

 MAXIMUM STEPSIZE WHICH MEETS STABILITY CRITERION OF THE SINK & SOURCE TERM
 =  252.7    (WHEN MIN. R.F.=1)  AT K=   2, I=   1, J= 120

 MAXIMUM STEPSIZE WHICH MEETS STABILITY CRITERION OF THE DISPERSION TERM
 =  20.29    (WHEN MIN. R.F.=1)  AT K=   1, I=   1, J=  31


     1 CALLS TO GCG PACKAGE FOR TRANSPORT TIME STEP   1 IN FLOW TIME STEP 318 STRESS PERIOD   1
     6 TOTAL ITERATIONS

 NO OUTPUT CONTROL FOR STRESS PERIOD    1   TIME STEP 318
 
 SOLVING FOR HEAD 
 FLOW MODEL IS TRANSIENT
 FLOW MODEL CONTAINS CONSTANT-HEAD CELLS


 MAXIMUM STEPSIZE DURING WHICH ANY PARTICLE CANNOT MOVE MORE THAN ONE CELL
 =  5.390    (WHEN MIN. R.F.=1)  AT K=   4, I=   1, J=  74

 MAXIMUM STEPSIZE WHICH MEETS STABILITY CRITERION OF THE ADVECTION TERM
 (FOR PURE FINITE-DIFFERENCE OPTION, MIXELM=0) 
 =  3.816    (WHEN MIN. R.F.=1)  AT K=   2, I=   1, J=  42


 TOTAL NUMBER OF POINT SOURCES/SINKS PRESENT IN THE FLOW MODEL =    62

 MAXIMUM STEPSIZE WHICH MEETS STABILITY CRITERION OF THE SINK & SOURCE TERM
 =  232.7    (WHEN MIN. R.F.=1)  AT K=   2, I=   1, J= 120

 MAXIMUM STEPSIZE WHICH MEETS STABILITY CRITERION OF THE DISPERSION TERM
 =  20.29    (WHEN MIN. R.F.=1)  AT K=   1, I=   1, J=  31
     1 CALLS TO GCG PACKAGE FOR TRANSPORT TIME STEP   2 IN FLOW TIME STEP 318 STRESS PERIOD   1
     6 TOTAL ITERATIONS
 
 SOLVING FOR HEAD 
 FLOW MODEL IS TRANSIENT
 FLOW MODEL CONTAINS CONSTANT-HEAD CELLS


 MAXIMUM STEPSIZE DURING WHICH ANY PARTICLE CANNOT MOVE MORE THAN ONE CELL
 =  5.216    (WHEN MIN. R.F.=1)  AT K=   4, I=   1, J=  74

 MAXIMUM STEPSIZE WHICH MEETS STABILITY CRITERION OF THE ADVECTION TERM
 (FOR PURE FINITE-DIFFERENCE OPTION, MIXELM=0) 
 =  4.104    (WHEN MIN. R.F.=1)  AT K=   2, I=   1, J=  42


 TOTAL NUMBER OF POINT SOURCES/SINKS PRESENT IN THE FLOW MODEL =    62

 MAXIMUM STEPSIZE WHICH MEETS STABILITY CRITERION OF THE SINK & SOURCE TERM
 =  221.3    (WHEN MIN. R.F.=1)  AT K=   2, I=   1, J= 120

 MAXIMUM STEPSIZE WHICH MEETS STABILITY CRITERION OF THE DISPERSION TERM
 =  20.29    (WHEN MIN. R.F.=1)  AT K=   1, I=   1, J=  31
     1 CALLS TO GCG PACKAGE FOR TRANSPORT TIME STEP   3 IN FLOW TIME STEP 318 STRESS PERIOD   1
     6 TOTAL ITERATIONS
 
 SOLVING FOR HEAD 
 FLOW MODEL IS TRANSIENT
 FLOW MODEL CONTAINS CONSTANT-HEAD CELLS


 MAXIMUM STEPSIZE DURING WHICH ANY PARTICLE CANNOT MOVE MORE THAN ONE CELL
 =  5.119    (WHEN MIN. R.F.=1)  AT K=   4, I=   1, J=  74

 MAXIMUM STEPSIZE WHICH MEETS STABILITY CRITERION OF THE ADVECTION TERM
 (FOR PURE FINITE-DIFFERENCE OPTION, MIXELM=0) 
 =  3.863    (WHEN MIN. R.F.=1)  AT K=   2, I=   1, J=  80


 TOTAL NUMBER OF POINT SOURCES/SINKS PRESENT IN THE FLOW MODEL =    62

 MAXIMUM STEPSIZE WHICH MEETS STABILITY CRITERION OF THE SINK & SOURCE TERM
 =  211.4    (WHEN MIN. R.F.=1)  AT K=   2, I=   1, J= 120

 MAXIMUM STEPSIZE WHICH MEETS STABILITY CRITERION OF THE DISPERSION TERM
 =  20.29    (WHEN MIN. R.F.=1)  AT K=   1, I=   1, J=  31
     1 CALLS TO GCG PACKAGE FOR TRANSPORT TIME STEP   4 IN FLOW TIME STEP 318 STRESS PERIOD   1
     5 TOTAL ITERATIONS
  MAXIMUM CONCENTRATION CHANGES FOR EACH ITERATION:
  MAX. CHANGE LAYER,ROW,COL MAX. CHANGE LAYER,ROW,COL MAX. CHANGE LAYER,ROW,COL MAX. CHANGE LAYER,ROW,COL MAX. CHANGE LAYER,ROW,COL
 ------------------------------------------------------------------------------------------------------------------------------------
   0.1754E-01 (  2,  1, 82)  0.3654E-03 (  2,  1, 62)  0.1148E-04 (  3,  1, 80)  0.3997E-06 (  3,  1, 77)  0.1216E-07 (  2,  1, 80)


                                          ================================================
                                                         FROM TIME =   3180.0     TO    3190.0    

 
 SOLVING FOR HEAD 
 FLOW MODEL IS TRANSIENT
 FLOW MODEL CONTAINS CONSTANT-HEAD CELLS


 MAXIMUM STEPSIZE DURING WHICH ANY PARTICLE CANNOT MOVE MORE THAN ONE CELL
 =  5.097    (WHEN MIN. R.F.=1)  AT K=   4, I=   1, J=  74

 MAXIMUM STEPSIZE WHICH MEETS STABILITY CRITERION OF THE ADVECTION TERM
 (FOR PURE FINITE-DIFFERENCE OPTION, MIXELM=0) 
 =  3.748    (WHEN MIN. R.F.=1)  AT K=   2, I=   1, J=  80


 TOTAL NUMBER OF POINT SOURCES/SINKS PRESENT IN THE FLOW MODEL =    62

 MAXIMUM STEPSIZE WHICH MEETS STABILITY CRITERION OF THE SINK & SOURCE TERM
 =  215.9    (WHEN MIN. R.F.=1)  AT K=   2, I=   1, J= 120

 MAXIMUM STEPSIZE WHICH MEETS STABILITY CRITERION OF THE DISPERSION TERM
 =  20.29    (WHEN MIN. R.F.=1)  AT K=   1, I=   1, J=  31


     1 CALLS TO GCG PACKAGE FOR TRANSPORT TIME STEP   1 IN FLOW TIME STEP 319 STRESS PERIOD   1
     6 TOTAL ITERATIONS

 NO OUTPUT CONTROL FOR STRESS PERIOD    1   TIME STEP 319
 
 SOLVING FOR HEAD 
 FLOW MODEL IS TRANSIENT
 FLOW MODEL CONTAINS CONSTANT-HEAD CELLS


 MAXIMUM STEPSIZE DURING WHICH ANY PARTICLE CANNOT MOVE MORE THAN ONE CELL
 =  5.114    (WHEN MIN. R.F.=1)  AT K=   4, I=   1, J=  74

 MAXIMUM STEPSIZE WHICH MEETS STABILITY CRITERION OF THE ADVECTION TERM
 (FOR PURE FINITE-DIFFERENCE OPTION, MIXELM=0) 
 =  3.648    (WHEN MIN. R.F.=1)  AT K=   2, I=   1, J=  80


 TOTAL NUMBER OF POINT SOURCES/SINKS PRESENT IN THE FLOW MODEL =    62

 MAXIMUM STEPSIZE WHICH MEETS STABILITY CRITERION OF THE SINK & SOURCE TERM
 =  205.3    (WHEN MIN. R.F.=1)  AT K=   2, I=   1, J= 120

 MAXIMUM STEPSIZE WHICH MEETS STABILITY CRITERION OF THE DISPERSION TERM
 =  20.29    (WHEN MIN. R.F.=1)  AT K=   1, I=   1, J=  31
     1 CALLS TO GCG PACKAGE FOR TRANSPORT TIME STEP   2 IN FLOW TIME STEP 319 STRESS PERIOD   1
     6 TOTAL ITERATIONS
 
 SOLVING FOR HEAD 
 FLOW MODEL IS TRANSIENT
 FLOW MODEL CONTAINS CONSTANT-HEAD CELLS


 MAXIMUM STEPSIZE DURING WHICH ANY PARTICLE CANNOT MOVE MORE THAN ONE CELL
 =  5.196    (WHEN MIN. R.F.=1)  AT K=   4, I=   1, J=  74

 MAXIMUM STEPSIZE WHICH MEETS STABILITY CRITERION OF THE ADVECTION TERM
 (FOR PURE FINITE-DIFFERENCE OPTION, MIXELM=0) 
 =  3.699    (WHEN MIN. R.F.=1)  AT K=   2, I=   1, J=  80


 TOTAL NUMBER OF POINT SOURCES/SINKS PRESENT IN THE FLOW MODEL =    62

 MAXIMUM STEPSIZE WHICH MEETS STABILITY CRITERION OF THE SINK & SOURCE TERM
 =  210.5    (WHEN MIN. R.F.=1)  AT K=   2, I=   1, J= 120

 MAXIMUM STEPSIZE WHICH MEETS STABILITY CRITERION OF THE DISPERSION TERM
 =  20.29    (WHEN MIN. R.F.=1)  AT K=   1, I=   1, J=  31
     1 CALLS TO GCG PACKAGE FOR TRANSPORT TIME STEP   3 IN FLOW TIME STEP 319 STRESS PERIOD   1
     6 TOTAL ITERATIONS
 
 SOLVING FOR HEAD 
 FLOW MODEL IS TRANSIENT
 FLOW MODEL CONTAINS CONSTANT-HEAD CELLS


 MAXIMUM STEPSIZE DURING WHICH ANY PARTICLE CANNOT MOVE MORE THAN ONE CELL
 =  5.247    (WHEN MIN. R.F.=1)  AT K=   5, I=   1, J=  74

 MAXIMUM STEPSIZE WHICH MEETS STABILITY CRITERION OF THE ADVECTION TERM
 (FOR PURE FINITE-DIFFERENCE OPTION, MIXELM=0) 
 =  4.015    (WHEN MIN. R.F.=1)  AT K=   2, I=   1, J=  80


 TOTAL NUMBER OF POINT SOURCES/SINKS PRESENT IN THE FLOW MODEL =    62

 MAXIMUM STEPSIZE WHICH MEETS STABILITY CRITERION OF THE SINK & SOURCE TERM
 =  205.7    (WHEN MIN. R.F.=1)  AT K=   2, I=   1, J= 120

 MAXIMUM STEPSIZE WHICH MEETS STABILITY CRITERION OF THE DISPERSION TERM
 =  20.29    (WHEN MIN. R.F.=1)  AT K=   1, I=   1, J=  31
     1 CALLS TO GCG PACKAGE FOR TRANSPORT TIME STEP   4 IN FLOW TIME STEP 319 STRESS PERIOD   1
     5 TOTAL ITERATIONS
  MAXIMUM CONCENTRATION CHANGES FOR EACH ITERATION:
  MAX. CHANGE LAYER,ROW,COL MAX. CHANGE LAYER,ROW,COL MAX. CHANGE LAYER,ROW,COL MAX. CHANGE LAYER,ROW,COL MAX. CHANGE LAYER,ROW,COL
 ------------------------------------------------------------------------------------------------------------------------------------
   0.1936E-01 (  2,  1, 81)  0.4566E-03 (  2,  1, 79)  0.1902E-04 (  3,  1, 79)  0.5625E-06 (  4,  1, 79)  0.1597E-07 (  4,  1, 78)


                                          ================================================
                                                         FROM TIME =   3190.0     TO    3200.0    

 
 SOLVING FOR HEAD 
 FLOW MODEL IS TRANSIENT
 FLOW MODEL CONTAINS CONSTANT-HEAD CELLS


 MAXIMUM STEPSIZE DURING WHICH ANY PARTICLE CANNOT MOVE MORE THAN ONE CELL
 =  5.297    (WHEN MIN. R.F.=1)  AT K=   5, I=   1, J=  74

 MAXIMUM STEPSIZE WHICH MEETS STABILITY CRITERION OF THE ADVECTION TERM
 (FOR PURE FINITE-DIFFERENCE OPTION, MIXELM=0) 
 =  3.833    (WHEN MIN. R.F.=1)  AT K=   2, I=   1, J=  79


 TOTAL NUMBER OF POINT SOURCES/SINKS PRESENT IN THE FLOW MODEL =    62

 MAXIMUM STEPSIZE WHICH MEETS STABILITY CRITERION OF THE SINK & SOURCE TERM
 =  212.9    (WHEN MIN. R.F.=1)  AT K=   2, I=   1, J= 120

 MAXIMUM STEPSIZE WHICH MEETS STABILITY CRITERION OF THE DISPERSION TERM
 =  20.29    (WHEN MIN. R.F.=1)  AT K=   1, I=   1, J=  31


     1 CALLS TO GCG PACKAGE FOR TRANSPORT TIME STEP   1 IN FLOW TIME STEP 320 STRESS PERIOD   1
     6 TOTAL ITERATIONS

 NO OUTPUT CONTROL FOR STRESS PERIOD    1   TIME STEP 320
 
 SOLVING FOR HEAD 
 FLOW MODEL IS TRANSIENT
 FLOW MODEL CONTAINS CONSTANT-HEAD CELLS


 MAXIMUM STEPSIZE DURING WHICH ANY PARTICLE CANNOT MOVE MORE THAN ONE CELL
 =  5.426    (WHEN MIN. R.F.=1)  AT K=   5, I=   1, J=  74

 MAXIMUM STEPSIZE WHICH MEETS STABILITY CRITERION OF THE ADVECTION TERM
 (FOR PURE FINITE-DIFFERENCE OPTION, MIXELM=0) 
 =  3.617    (WHEN MIN. R.F.=1)  AT K=   2, I=   1, J=  79


 TOTAL NUMBER OF POINT SOURCES/SINKS PRESENT IN THE FLOW MODEL =    62

 MAXIMUM STEPSIZE WHICH MEETS STABILITY CRITERION OF THE SINK & SOURCE TERM
 =  199.7    (WHEN MIN. R.F.=1)  AT K=   2, I=   1, J= 120

 MAXIMUM STEPSIZE WHICH MEETS STABILITY CRITERION OF THE DISPERSION TERM
 =  20.29    (WHEN MIN. R.F.=1)  AT K=   1, I=   1, J=  31
     1 CALLS TO GCG PACKAGE FOR TRANSPORT TIME STEP   2 IN FLOW TIME STEP 320 STRESS PERIOD   1
     6 TOTAL ITERATIONS
 
 SOLVING FOR HEAD 
 FLOW MODEL IS TRANSIENT
 FLOW MODEL CONTAINS CONSTANT-HEAD CELLS


 MAXIMUM STEPSIZE DURING WHICH ANY PARTICLE CANNOT MOVE MORE THAN ONE CELL
 =  5.538    (WHEN MIN. R.F.=1)  AT K=   6, I=   1, J=  74

 MAXIMUM STEPSIZE WHICH MEETS STABILITY CRITERION OF THE ADVECTION TERM
 (FOR PURE FINITE-DIFFERENCE OPTION, MIXELM=0) 
 =  3.575    (WHEN MIN. R.F.=1)  AT K=   2, I=   1, J=  79


 TOTAL NUMBER OF POINT SOURCES/SINKS PRESENT IN THE FLOW MODEL =    62

 MAXIMUM STEPSIZE WHICH MEETS STABILITY CRITERION OF THE SINK & SOURCE TERM
 =  197.7    (WHEN MIN. R.F.=1)  AT K=   2, I=   1, J= 120

 MAXIMUM STEPSIZE WHICH MEETS STABILITY CRITERION OF THE DISPERSION TERM
 =  20.29    (WHEN MIN. R.F.=1)  AT K=   1, I=   1, J=  31
     1 CALLS TO GCG PACKAGE FOR TRANSPORT TIME STEP   3 IN FLOW TIME STEP 320 STRESS PERIOD   1
     6 TOTAL ITERATIONS
 
 SOLVING FOR HEAD 
 FLOW MODEL IS TRANSIENT
 FLOW MODEL CONTAINS CONSTANT-HEAD CELLS


 MAXIMUM STEPSIZE DURING WHICH ANY PARTICLE CANNOT MOVE MORE THAN ONE CELL
 =  5.650    (WHEN MIN. R.F.=1)  AT K=   6, I=   1, J=  74

 MAXIMUM STEPSIZE WHICH MEETS STABILITY CRITERION OF THE ADVECTION TERM
 (FOR PURE FINITE-DIFFERENCE OPTION, MIXELM=0) 
 =  3.664    (WHEN MIN. R.F.=1)  AT K=   2, I=   1, J=  79


 TOTAL NUMBER OF POINT SOURCES/SINKS PRESENT IN THE FLOW MODEL =    62

 MAXIMUM STEPSIZE WHICH MEETS STABILITY CRITERION OF THE SINK & SOURCE TERM
 =  195.6    (WHEN MIN. R.F.=1)  AT K=   2, I=   1, J= 120

 MAXIMUM STEPSIZE WHICH MEETS STABILITY CRITERION OF THE DISPERSION TERM
 =  20.29    (WHEN MIN. R.F.=1)  AT K=   1, I=   1, J=  31
     1 CALLS TO GCG PACKAGE FOR TRANSPORT TIME STEP   4 IN FLOW TIME STEP 320 STRESS PERIOD   1
     5 TOTAL ITERATIONS
  MAXIMUM CONCENTRATION CHANGES FOR EACH ITERATION:
  MAX. CHANGE LAYER,ROW,COL MAX. CHANGE LAYER,ROW,COL MAX. CHANGE LAYER,ROW,COL MAX. CHANGE LAYER,ROW,COL MAX. CHANGE LAYER,ROW,COL
 ------------------------------------------------------------------------------------------------------------------------------------
   0.1779E-01 (  2,  1, 80)  0.3447E-03 (  2,  1, 78)  0.1413E-04 (  3,  1, 78)  0.5548E-06 (  3,  1, 76)  0.1396E-07 (  4,  1, 76)


                                          ================================================
                                                         FROM TIME =   3200.0     TO    3210.0    

 
 SOLVING FOR HEAD 
 FLOW MODEL IS TRANSIENT
 FLOW MODEL CONTAINS CONSTANT-HEAD CELLS


 MAXIMUM STEPSIZE DURING WHICH ANY PARTICLE CANNOT MOVE MORE THAN ONE CELL
 =  5.726    (WHEN MIN. R.F.=1)  AT K=   6, I=   1, J=  74

 MAXIMUM STEPSIZE WHICH MEETS STABILITY CRITERION OF THE ADVECTION TERM
 (FOR PURE FINITE-DIFFERENCE OPTION, MIXELM=0) 
 =  3.800    (WHEN MIN. R.F.=1)  AT K=   2, I=   1, J=  79


 TOTAL NUMBER OF POINT SOURCES/SINKS PRESENT IN THE FLOW MODEL =    62

 MAXIMUM STEPSIZE WHICH MEETS STABILITY CRITERION OF THE SINK & SOURCE TERM
 =  205.7    (WHEN MIN. R.F.=1)  AT K=   2, I=   1, J= 120

 MAXIMUM STEPSIZE WHICH MEETS STABILITY CRITERION OF THE DISPERSION TERM
 =  20.29    (WHEN MIN. R.F.=1)  AT K=   1, I=   1, J=  31


     1 CALLS TO GCG PACKAGE FOR TRANSPORT TIME STEP   1 IN FLOW TIME STEP 321 STRESS PERIOD   1
     6 TOTAL ITERATIONS

 NO OUTPUT CONTROL FOR STRESS PERIOD    1   TIME STEP 321
 
 SOLVING FOR HEAD 
 FLOW MODEL IS TRANSIENT
 FLOW MODEL CONTAINS CONSTANT-HEAD CELLS


 MAXIMUM STEPSIZE DURING WHICH ANY PARTICLE CANNOT MOVE MORE THAN ONE CELL
 =  5.833    (WHEN MIN. R.F.=1)  AT K=   7, I=   1, J=  74

 MAXIMUM STEPSIZE WHICH MEETS STABILITY CRITERION OF THE ADVECTION TERM
 (FOR PURE FINITE-DIFFERENCE OPTION, MIXELM=0) 
 =  3.965    (WHEN MIN. R.F.=1)  AT K=   2, I=   1, J=  78


 TOTAL NUMBER OF POINT SOURCES/SINKS PRESENT IN THE FLOW MODEL =    62

 MAXIMUM STEPSIZE WHICH MEETS STABILITY CRITERION OF THE SINK & SOURCE TERM
 =  195.9    (WHEN MIN. R.F.=1)  AT K=   2, I=   1, J= 120

 MAXIMUM STEPSIZE WHICH MEETS STABILITY CRITERION OF THE DISPERSION TERM
 =  20.29    (WHEN MIN. R.F.=1)  AT K=   1, I=   1, J=  31
     1 CALLS TO GCG PACKAGE FOR TRANSPORT TIME STEP   2 IN FLOW TIME STEP 321 STRESS PERIOD   1
     6 TOTAL ITERATIONS
 
 SOLVING FOR HEAD 
 FLOW MODEL IS TRANSIENT
 FLOW MODEL CONTAINS CONSTANT-HEAD CELLS


 MAXIMUM STEPSIZE DURING WHICH ANY PARTICLE CANNOT MOVE MORE THAN ONE CELL
 =  5.932    (WHEN MIN. R.F.=1)  AT K=  28, I=   1, J=  54

 MAXIMUM STEPSIZE WHICH MEETS STABILITY CRITERION OF THE ADVECTION TERM
 (FOR PURE FINITE-DIFFERENCE OPTION, MIXELM=0) 
 =  3.725    (WHEN MIN. R.F.=1)  AT K=   2, I=   1, J=  78


 TOTAL NUMBER OF POINT SOURCES/SINKS PRESENT IN THE FLOW MODEL =    62

 MAXIMUM STEPSIZE WHICH MEETS STABILITY CRITERION OF THE SINK & SOURCE TERM
 =  192.5    (WHEN MIN. R.F.=1)  AT K=   2, I=   1, J= 120

 MAXIMUM STEPSIZE WHICH MEETS STABILITY CRITERION OF THE DISPERSION TERM
 =  20.29    (WHEN MIN. R.F.=1)  AT K=   1, I=   1, J=  31
     1 CALLS TO GCG PACKAGE FOR TRANSPORT TIME STEP   3 IN FLOW TIME STEP 321 STRESS PERIOD   1
     6 TOTAL ITERATIONS
 
 SOLVING FOR HEAD 
 FLOW MODEL IS TRANSIENT
 FLOW MODEL CONTAINS CONSTANT-HEAD CELLS


 MAXIMUM STEPSIZE DURING WHICH ANY PARTICLE CANNOT MOVE MORE THAN ONE CELL
 =  5.919    (WHEN MIN. R.F.=1)  AT K=  28, I=   1, J=  54

 MAXIMUM STEPSIZE WHICH MEETS STABILITY CRITERION OF THE ADVECTION TERM
 (FOR PURE FINITE-DIFFERENCE OPTION, MIXELM=0) 
 =  3.635    (WHEN MIN. R.F.=1)  AT K=   2, I=   1, J=  78


 TOTAL NUMBER OF POINT SOURCES/SINKS PRESENT IN THE FLOW MODEL =    62

 MAXIMUM STEPSIZE WHICH MEETS STABILITY CRITERION OF THE SINK & SOURCE TERM
 =  188.7    (WHEN MIN. R.F.=1)  AT K=   2, I=   1, J= 120

 MAXIMUM STEPSIZE WHICH MEETS STABILITY CRITERION OF THE DISPERSION TERM
 =  20.29    (WHEN MIN. R.F.=1)  AT K=   1, I=   1, J=  31
     1 CALLS TO GCG PACKAGE FOR TRANSPORT TIME STEP   4 IN FLOW TIME STEP 321 STRESS PERIOD   1
     5 TOTAL ITERATIONS
  MAXIMUM CONCENTRATION CHANGES FOR EACH ITERATION:
  MAX. CHANGE LAYER,ROW,COL MAX. CHANGE LAYER,ROW,COL MAX. CHANGE LAYER,ROW,COL MAX. CHANGE LAYER,ROW,COL MAX. CHANGE LAYER,ROW,COL
 ------------------------------------------------------------------------------------------------------------------------------------
   0.1604E-01 (  2,  1, 79)  0.3772E-03 (  2,  1, 79)  0.1050E-04 (  2,  1, 80)  0.3446E-06 (  3,  1, 80)  0.9359E-08 (  3,  1, 88)


                                          ================================================
                                                         FROM TIME =   3210.0     TO    3220.0    

 
 SOLVING FOR HEAD 
 FLOW MODEL IS TRANSIENT
 FLOW MODEL CONTAINS CONSTANT-HEAD CELLS


 MAXIMUM STEPSIZE DURING WHICH ANY PARTICLE CANNOT MOVE MORE THAN ONE CELL
 =  5.919    (WHEN MIN. R.F.=1)  AT K=  28, I=   1, J=  54

 MAXIMUM STEPSIZE WHICH MEETS STABILITY CRITERION OF THE ADVECTION TERM
 (FOR PURE FINITE-DIFFERENCE OPTION, MIXELM=0) 
 =  3.649    (WHEN MIN. R.F.=1)  AT K=   2, I=   1, J=  78


 TOTAL NUMBER OF POINT SOURCES/SINKS PRESENT IN THE FLOW MODEL =    62

 MAXIMUM STEPSIZE WHICH MEETS STABILITY CRITERION OF THE SINK & SOURCE TERM
 =  200.2    (WHEN MIN. R.F.=1)  AT K=   2, I=   1, J= 120

 MAXIMUM STEPSIZE WHICH MEETS STABILITY CRITERION OF THE DISPERSION TERM
 =  20.29    (WHEN MIN. R.F.=1)  AT K=   1, I=   1, J=  31


     1 CALLS TO GCG PACKAGE FOR TRANSPORT TIME STEP   1 IN FLOW TIME STEP 322 STRESS PERIOD   1
     6 TOTAL ITERATIONS

 NO OUTPUT CONTROL FOR STRESS PERIOD    1   TIME STEP 322
 
 SOLVING FOR HEAD 
 FLOW MODEL IS TRANSIENT
 FLOW MODEL CONTAINS CONSTANT-HEAD CELLS


 MAXIMUM STEPSIZE DURING WHICH ANY PARTICLE CANNOT MOVE MORE THAN ONE CELL
 =  5.909    (WHEN MIN. R.F.=1)  AT K=  28, I=   1, J=  54

 MAXIMUM STEPSIZE WHICH MEETS STABILITY CRITERION OF THE ADVECTION TERM
 (FOR PURE FINITE-DIFFERENCE OPTION, MIXELM=0) 
 =  3.751    (WHEN MIN. R.F.=1)  AT K=   2, I=   1, J=  78


 TOTAL NUMBER OF POINT SOURCES/SINKS PRESENT IN THE FLOW MODEL =    62

 MAXIMUM STEPSIZE WHICH MEETS STABILITY CRITERION OF THE SINK & SOURCE TERM
 =  193.7    (WHEN MIN. R.F.=1)  AT K=   2, I=   1, J= 120

 MAXIMUM STEPSIZE WHICH MEETS STABILITY CRITERION OF THE DISPERSION TERM
 =  20.29    (WHEN MIN. R.F.=1)  AT K=   1, I=   1, J=  31
     1 CALLS TO GCG PACKAGE FOR TRANSPORT TIME STEP   2 IN FLOW TIME STEP 322 STRESS PERIOD   1
     6 TOTAL ITERATIONS
 
 SOLVING FOR HEAD 
 FLOW MODEL IS TRANSIENT
 FLOW MODEL CONTAINS CONSTANT-HEAD CELLS


 MAXIMUM STEPSIZE DURING WHICH ANY PARTICLE CANNOT MOVE MORE THAN ONE CELL
 =  5.899    (WHEN MIN. R.F.=1)  AT K=  28, I=   1, J=  54

 MAXIMUM STEPSIZE WHICH MEETS STABILITY CRITERION OF THE ADVECTION TERM
 (FOR PURE FINITE-DIFFERENCE OPTION, MIXELM=0) 
 =  4.027    (WHEN MIN. R.F.=1)  AT K=   2, I=   1, J=  78


 TOTAL NUMBER OF POINT SOURCES/SINKS PRESENT IN THE FLOW MODEL =    62

 MAXIMUM STEPSIZE WHICH MEETS STABILITY CRITERION OF THE SINK & SOURCE TERM
 =  190.5    (WHEN MIN. R.F.=1)  AT K=   2, I=   1, J= 120

 MAXIMUM STEPSIZE WHICH MEETS STABILITY CRITERION OF THE DISPERSION TERM
 =  20.29    (WHEN MIN. R.F.=1)  AT K=   1, I=   1, J=  31
     1 CALLS TO GCG PACKAGE FOR TRANSPORT TIME STEP   3 IN FLOW TIME STEP 322 STRESS PERIOD   1
     6 TOTAL ITERATIONS
 
 SOLVING FOR HEAD 
 FLOW MODEL IS TRANSIENT
 FLOW MODEL CONTAINS CONSTANT-HEAD CELLS


 MAXIMUM STEPSIZE DURING WHICH ANY PARTICLE CANNOT MOVE MORE THAN ONE CELL
 =  5.887    (WHEN MIN. R.F.=1)  AT K=  28, I=   1, J=  54

 MAXIMUM STEPSIZE WHICH MEETS STABILITY CRITERION OF THE ADVECTION TERM
 (FOR PURE FINITE-DIFFERENCE OPTION, MIXELM=0) 
 =  4.078    (WHEN MIN. R.F.=1)  AT K=   2, I=   1, J=  77


 TOTAL NUMBER OF POINT SOURCES/SINKS PRESENT IN THE FLOW MODEL =    62

 MAXIMUM STEPSIZE WHICH MEETS STABILITY CRITERION OF THE SINK & SOURCE TERM
 =  185.6    (WHEN MIN. R.F.=1)  AT K=   2, I=   1, J= 120

 MAXIMUM STEPSIZE WHICH MEETS STABILITY CRITERION OF THE DISPERSION TERM
 =  20.29    (WHEN MIN. R.F.=1)  AT K=   1, I=   1, J=  31
     1 CALLS TO GCG PACKAGE FOR TRANSPORT TIME STEP   4 IN FLOW TIME STEP 322 STRESS PERIOD   1
     5 TOTAL ITERATIONS
  MAXIMUM CONCENTRATION CHANGES FOR EACH ITERATION:
  MAX. CHANGE LAYER,ROW,COL MAX. CHANGE LAYER,ROW,COL MAX. CHANGE LAYER,ROW,COL MAX. CHANGE LAYER,ROW,COL MAX. CHANGE LAYER,ROW,COL
 ------------------------------------------------------------------------------------------------------------------------------------
   0.1908E-01 (  2,  1, 79)  0.6488E-03 (  2,  1, 77)  0.2099E-04 (  3,  1, 77)  0.7469E-06 (  3,  1, 43)  0.2501E-07 (  5,  1, 80)


                                          ================================================
                                                         FROM TIME =   3220.0     TO    3230.0    

 
 SOLVING FOR HEAD 
 FLOW MODEL IS TRANSIENT
 FLOW MODEL CONTAINS CONSTANT-HEAD CELLS


 MAXIMUM STEPSIZE DURING WHICH ANY PARTICLE CANNOT MOVE MORE THAN ONE CELL
 =  5.885    (WHEN MIN. R.F.=1)  AT K=  28, I=   1, J=  54

 MAXIMUM STEPSIZE WHICH MEETS STABILITY CRITERION OF THE ADVECTION TERM
 (FOR PURE FINITE-DIFFERENCE OPTION, MIXELM=0) 
 =  3.944    (WHEN MIN. R.F.=1)  AT K=   2, I=   1, J=  77


 TOTAL NUMBER OF POINT SOURCES/SINKS PRESENT IN THE FLOW MODEL =    62

 MAXIMUM STEPSIZE WHICH MEETS STABILITY CRITERION OF THE SINK & SOURCE TERM
 =  186.9    (WHEN MIN. R.F.=1)  AT K=   2, I=   1, J= 120

 MAXIMUM STEPSIZE WHICH MEETS STABILITY CRITERION OF THE DISPERSION TERM
 =  20.29    (WHEN MIN. R.F.=1)  AT K=   1, I=   1, J=  31


     1 CALLS TO GCG PACKAGE FOR TRANSPORT TIME STEP   1 IN FLOW TIME STEP 323 STRESS PERIOD   1
     6 TOTAL ITERATIONS

 NO OUTPUT CONTROL FOR STRESS PERIOD    1   TIME STEP 323
 
 SOLVING FOR HEAD 
 FLOW MODEL IS TRANSIENT
 FLOW MODEL CONTAINS CONSTANT-HEAD CELLS


 MAXIMUM STEPSIZE DURING WHICH ANY PARTICLE CANNOT MOVE MORE THAN ONE CELL
 =  5.871    (WHEN MIN. R.F.=1)  AT K=  28, I=   1, J=  54

 MAXIMUM STEPSIZE WHICH MEETS STABILITY CRITERION OF THE ADVECTION TERM
 (FOR PURE FINITE-DIFFERENCE OPTION, MIXELM=0) 
 =  3.822    (WHEN MIN. R.F.=1)  AT K=   2, I=   1, J=  77


 TOTAL NUMBER OF POINT SOURCES/SINKS PRESENT IN THE FLOW MODEL =    62

 MAXIMUM STEPSIZE WHICH MEETS STABILITY CRITERION OF THE SINK & SOURCE TERM
 =  179.6    (WHEN MIN. R.F.=1)  AT K=   2, I=   1, J= 120

 MAXIMUM STEPSIZE WHICH MEETS STABILITY CRITERION OF THE DISPERSION TERM
 =  20.29    (WHEN MIN. R.F.=1)  AT K=   1, I=   1, J=  31
     1 CALLS TO GCG PACKAGE FOR TRANSPORT TIME STEP   2 IN FLOW TIME STEP 323 STRESS PERIOD   1
     6 TOTAL ITERATIONS
 
 SOLVING FOR HEAD 
 FLOW MODEL IS TRANSIENT
 FLOW MODEL CONTAINS CONSTANT-HEAD CELLS


 MAXIMUM STEPSIZE DURING WHICH ANY PARTICLE CANNOT MOVE MORE THAN ONE CELL
 =  5.858    (WHEN MIN. R.F.=1)  AT K=  28, I=   1, J=  54

 MAXIMUM STEPSIZE WHICH MEETS STABILITY CRITERION OF THE ADVECTION TERM
 (FOR PURE FINITE-DIFFERENCE OPTION, MIXELM=0) 
 =  3.837    (WHEN MIN. R.F.=1)  AT K=   2, I=   1, J=  77


 TOTAL NUMBER OF POINT SOURCES/SINKS PRESENT IN THE FLOW MODEL =    62

 MAXIMUM STEPSIZE WHICH MEETS STABILITY CRITERION OF THE SINK & SOURCE TERM
 =  179.4    (WHEN MIN. R.F.=1)  AT K=   2, I=   1, J= 120

 MAXIMUM STEPSIZE WHICH MEETS STABILITY CRITERION OF THE DISPERSION TERM
 =  20.29    (WHEN MIN. R.F.=1)  AT K=   1, I=   1, J=  31
     1 CALLS TO GCG PACKAGE FOR TRANSPORT TIME STEP   3 IN FLOW TIME STEP 323 STRESS PERIOD   1
     6 TOTAL ITERATIONS
 
 SOLVING FOR HEAD 
 FLOW MODEL IS TRANSIENT
 FLOW MODEL CONTAINS CONSTANT-HEAD CELLS


 MAXIMUM STEPSIZE DURING WHICH ANY PARTICLE CANNOT MOVE MORE THAN ONE CELL
 =  5.847    (WHEN MIN. R.F.=1)  AT K=  28, I=   1, J=  54

 MAXIMUM STEPSIZE WHICH MEETS STABILITY CRITERION OF THE ADVECTION TERM
 (FOR PURE FINITE-DIFFERENCE OPTION, MIXELM=0) 
 =  3.968    (WHEN MIN. R.F.=1)  AT K=   2, I=   1, J=  77


 TOTAL NUMBER OF POINT SOURCES/SINKS PRESENT IN THE FLOW MODEL =    62

 MAXIMUM STEPSIZE WHICH MEETS STABILITY CRITERION OF THE SINK & SOURCE TERM
 =  175.1    (WHEN MIN. R.F.=1)  AT K=   2, I=   1, J= 120

 MAXIMUM STEPSIZE WHICH MEETS STABILITY CRITERION OF THE DISPERSION TERM
 =  20.29    (WHEN MIN. R.F.=1)  AT K=   1, I=   1, J=  31
     1 CALLS TO GCG PACKAGE FOR TRANSPORT TIME STEP   4 IN FLOW TIME STEP 323 STRESS PERIOD   1
     5 TOTAL ITERATIONS
  MAXIMUM CONCENTRATION CHANGES FOR EACH ITERATION:
  MAX. CHANGE LAYER,ROW,COL MAX. CHANGE LAYER,ROW,COL MAX. CHANGE LAYER,ROW,COL MAX. CHANGE LAYER,ROW,COL MAX. CHANGE LAYER,ROW,COL
 ------------------------------------------------------------------------------------------------------------------------------------
   0.1402E-01 (  2,  1, 78)  0.2457E-03 (  2,  1, 75)  0.5855E-05 (  2,  1, 79)  0.1617E-06 (  3,  1, 79)  0.3069E-08 (  4,  1, 75)


                                          ================================================
                                                         FROM TIME =   3230.0     TO    3240.0    

 
 SOLVING FOR HEAD 
 FLOW MODEL IS TRANSIENT
 FLOW MODEL CONTAINS CONSTANT-HEAD CELLS


 MAXIMUM STEPSIZE DURING WHICH ANY PARTICLE CANNOT MOVE MORE THAN ONE CELL
 =  5.849    (WHEN MIN. R.F.=1)  AT K=  28, I=   1, J=  54

 MAXIMUM STEPSIZE WHICH MEETS STABILITY CRITERION OF THE ADVECTION TERM
 (FOR PURE FINITE-DIFFERENCE OPTION, MIXELM=0) 
 =  4.074    (WHEN MIN. R.F.=1)  AT K=   2, I=   1, J=  77


 TOTAL NUMBER OF POINT SOURCES/SINKS PRESENT IN THE FLOW MODEL =    62

 MAXIMUM STEPSIZE WHICH MEETS STABILITY CRITERION OF THE SINK & SOURCE TERM
 =  181.7    (WHEN MIN. R.F.=1)  AT K=   2, I=   1, J= 120

 MAXIMUM STEPSIZE WHICH MEETS STABILITY CRITERION OF THE DISPERSION TERM
 =  20.29    (WHEN MIN. R.F.=1)  AT K=   1, I=   1, J=  31


     1 CALLS TO GCG PACKAGE FOR TRANSPORT TIME STEP   1 IN FLOW TIME STEP 324 STRESS PERIOD   1
     6 TOTAL ITERATIONS

 NO OUTPUT CONTROL FOR STRESS PERIOD    1   TIME STEP 324
 
 SOLVING FOR HEAD 
 FLOW MODEL IS TRANSIENT
 FLOW MODEL CONTAINS CONSTANT-HEAD CELLS


 MAXIMUM STEPSIZE DURING WHICH ANY PARTICLE CANNOT MOVE MORE THAN ONE CELL
 =  5.838    (WHEN MIN. R.F.=1)  AT K=  28, I=   1, J=  54

 MAXIMUM STEPSIZE WHICH MEETS STABILITY CRITERION OF THE ADVECTION TERM
 (FOR PURE FINITE-DIFFERENCE OPTION, MIXELM=0) 
 =  4.524    (WHEN MIN. R.F.=1)  AT K=   2, I=   1, J=  77


 TOTAL NUMBER OF POINT SOURCES/SINKS PRESENT IN THE FLOW MODEL =    62

 MAXIMUM STEPSIZE WHICH MEETS STABILITY CRITERION OF THE SINK & SOURCE TERM
 =  171.1    (WHEN MIN. R.F.=1)  AT K=   2, I=   1, J= 120

 MAXIMUM STEPSIZE WHICH MEETS STABILITY CRITERION OF THE DISPERSION TERM
 =  20.29    (WHEN MIN. R.F.=1)  AT K=   1, I=   1, J=  31
     1 CALLS TO GCG PACKAGE FOR TRANSPORT TIME STEP   2 IN FLOW TIME STEP 324 STRESS PERIOD   1
     6 TOTAL ITERATIONS
 
 SOLVING FOR HEAD 
 FLOW MODEL IS TRANSIENT
 FLOW MODEL CONTAINS CONSTANT-HEAD CELLS


 MAXIMUM STEPSIZE DURING WHICH ANY PARTICLE CANNOT MOVE MORE THAN ONE CELL
 =  5.826    (WHEN MIN. R.F.=1)  AT K=  28, I=   1, J=  54

 MAXIMUM STEPSIZE WHICH MEETS STABILITY CRITERION OF THE ADVECTION TERM
 (FOR PURE FINITE-DIFFERENCE OPTION, MIXELM=0) 
 =  4.440    (WHEN MIN. R.F.=1)  AT K=   2, I=   1, J=  40


 TOTAL NUMBER OF POINT SOURCES/SINKS PRESENT IN THE FLOW MODEL =    62

 MAXIMUM STEPSIZE WHICH MEETS STABILITY CRITERION OF THE SINK & SOURCE TERM
 =  167.1    (WHEN MIN. R.F.=1)  AT K=   2, I=   1, J= 120

 MAXIMUM STEPSIZE WHICH MEETS STABILITY CRITERION OF THE DISPERSION TERM
 =  20.29    (WHEN MIN. R.F.=1)  AT K=   1, I=   1, J=  31
     1 CALLS TO GCG PACKAGE FOR TRANSPORT TIME STEP   3 IN FLOW TIME STEP 324 STRESS PERIOD   1
     6 TOTAL ITERATIONS
 
 SOLVING FOR HEAD 
 FLOW MODEL IS TRANSIENT
 FLOW MODEL CONTAINS CONSTANT-HEAD CELLS


 MAXIMUM STEPSIZE DURING WHICH ANY PARTICLE CANNOT MOVE MORE THAN ONE CELL
 =  5.810    (WHEN MIN. R.F.=1)  AT K=  28, I=   1, J=  54

 MAXIMUM STEPSIZE WHICH MEETS STABILITY CRITERION OF THE ADVECTION TERM
 (FOR PURE FINITE-DIFFERENCE OPTION, MIXELM=0) 
 =  4.107    (WHEN MIN. R.F.=1)  AT K=   2, I=   1, J=  40


 TOTAL NUMBER OF POINT SOURCES/SINKS PRESENT IN THE FLOW MODEL =    62

 MAXIMUM STEPSIZE WHICH MEETS STABILITY CRITERION OF THE SINK & SOURCE TERM
 =  160.1    (WHEN MIN. R.F.=1)  AT K=   2, I=   1, J= 120

 MAXIMUM STEPSIZE WHICH MEETS STABILITY CRITERION OF THE DISPERSION TERM
 =  20.29    (WHEN MIN. R.F.=1)  AT K=   1, I=   1, J=  31
     1 CALLS TO GCG PACKAGE FOR TRANSPORT TIME STEP   4 IN FLOW TIME STEP 324 STRESS PERIOD   1
     4 TOTAL ITERATIONS
  MAXIMUM CONCENTRATION CHANGES FOR EACH ITERATION:
  MAX. CHANGE LAYER,ROW,COL MAX. CHANGE LAYER,ROW,COL MAX. CHANGE LAYER,ROW,COL MAX. CHANGE LAYER,ROW,COL MAX. CHANGE LAYER,ROW,COL
 ------------------------------------------------------------------------------------------------------------------------------------
   0.6217E-02 (  2,  1, 38)  0.6766E-04 (  2,  1, 76)  0.7357E-06 (  2,  1, 78)  0.9675E-08 (  3,  1, 76)


                                          ================================================
                                                         FROM TIME =   3240.0     TO    3250.0    

 
 SOLVING FOR HEAD 
 FLOW MODEL IS TRANSIENT
 FLOW MODEL CONTAINS CONSTANT-HEAD CELLS


 MAXIMUM STEPSIZE DURING WHICH ANY PARTICLE CANNOT MOVE MORE THAN ONE CELL
 =  5.813    (WHEN MIN. R.F.=1)  AT K=  28, I=   1, J=  54

 MAXIMUM STEPSIZE WHICH MEETS STABILITY CRITERION OF THE ADVECTION TERM
 (FOR PURE FINITE-DIFFERENCE OPTION, MIXELM=0) 
 =  4.077    (WHEN MIN. R.F.=1)  AT K=   2, I=   1, J=  40


 TOTAL NUMBER OF POINT SOURCES/SINKS PRESENT IN THE FLOW MODEL =    62

 MAXIMUM STEPSIZE WHICH MEETS STABILITY CRITERION OF THE SINK & SOURCE TERM
 =  170.2    (WHEN MIN. R.F.=1)  AT K=   2, I=   1, J= 120

 MAXIMUM STEPSIZE WHICH MEETS STABILITY CRITERION OF THE DISPERSION TERM
 =  20.29    (WHEN MIN. R.F.=1)  AT K=   1, I=   1, J=  31


     1 CALLS TO GCG PACKAGE FOR TRANSPORT TIME STEP   1 IN FLOW TIME STEP 325 STRESS PERIOD   1
     6 TOTAL ITERATIONS

 NO OUTPUT CONTROL FOR STRESS PERIOD    1   TIME STEP 325
 
 SOLVING FOR HEAD 
 FLOW MODEL IS TRANSIENT
 FLOW MODEL CONTAINS CONSTANT-HEAD CELLS


 MAXIMUM STEPSIZE DURING WHICH ANY PARTICLE CANNOT MOVE MORE THAN ONE CELL
 =  5.804    (WHEN MIN. R.F.=1)  AT K=  28, I=   1, J=  54

 MAXIMUM STEPSIZE WHICH MEETS STABILITY CRITERION OF THE ADVECTION TERM
 (FOR PURE FINITE-DIFFERENCE OPTION, MIXELM=0) 
 =  4.027    (WHEN MIN. R.F.=1)  AT K=   2, I=   1, J=  40


 TOTAL NUMBER OF POINT SOURCES/SINKS PRESENT IN THE FLOW MODEL =    62

 MAXIMUM STEPSIZE WHICH MEETS STABILITY CRITERION OF THE SINK & SOURCE TERM
 =  162.0    (WHEN MIN. R.F.=1)  AT K=   2, I=   1, J= 120

 MAXIMUM STEPSIZE WHICH MEETS STABILITY CRITERION OF THE DISPERSION TERM
 =  20.29    (WHEN MIN. R.F.=1)  AT K=   1, I=   1, J=  31
     1 CALLS TO GCG PACKAGE FOR TRANSPORT TIME STEP   2 IN FLOW TIME STEP 325 STRESS PERIOD   1
     5 TOTAL ITERATIONS



 >>>>>>>>>>>>>>>>>>>>>>>>>>>>>>>>>>>>>>>>>>>>>>>>>>>>>>>FOR COMPONENT NO. 01<<<<<<<<<<<<<<<<<<<<<<<<<<<<<<<<<<<<<<<<<<<<<<<<<<<<<<<


                                            -------------------------------------------
                                                      TRANSPORT STEP NO.    2
                                            -------------------------------------------

 TOTAL ELAPSED TIME SINCE BEGINNING OF SIMULATION =   3244.100    D   
 .....................................................................

                     CUMULATIVE MASS BUDGETS AT END OF TRANSPORT STEP    2, TIME STEP  325, STRESS PERIOD    1
                     ------------------------------------------------------------------------------------------

                                                             IN                           OUT
                                                      ----------------             ----------------
                               CONSTANT CONCENTRATION:    2104573.                   -1187079.    
                                        CONSTANT HEAD:    0.000000                   -69.38970    
                               MASS STOR (FLOW MODEL):    227.8216                   -408.2318    
                                MASS STORAGE (SOLUTE):    3319399.                   -4236643.    
                            ---------------------------------------------------------------------------
                                              [TOTAL]:    5424200.     KG            -5424200.     KG  

                                                          NET (IN - OUT):  -0.1878540E-02
                                                   DISCREPANCY (PERCENT):  -0.3463258E-07
 
 SOLVING FOR HEAD 
 FLOW MODEL IS TRANSIENT
 FLOW MODEL CONTAINS CONSTANT-HEAD CELLS


 MAXIMUM STEPSIZE DURING WHICH ANY PARTICLE CANNOT MOVE MORE THAN ONE CELL
 =  5.807    (WHEN MIN. R.F.=1)  AT K=  28, I=   1, J=  54

 MAXIMUM STEPSIZE WHICH MEETS STABILITY CRITERION OF THE ADVECTION TERM
 (FOR PURE FINITE-DIFFERENCE OPTION, MIXELM=0) 
 =  4.076    (WHEN MIN. R.F.=1)  AT K=   2, I=   1, J=  40


 TOTAL NUMBER OF POINT SOURCES/SINKS PRESENT IN THE FLOW MODEL =    62

 MAXIMUM STEPSIZE WHICH MEETS STABILITY CRITERION OF THE SINK & SOURCE TERM
 =  164.2    (WHEN MIN. R.F.=1)  AT K=   2, I=   1, J= 120

 MAXIMUM STEPSIZE WHICH MEETS STABILITY CRITERION OF THE DISPERSION TERM
 =  20.29    (WHEN MIN. R.F.=1)  AT K=   1, I=   1, J=  31
     1 CALLS TO GCG PACKAGE FOR TRANSPORT TIME STEP   3 IN FLOW TIME STEP 325 STRESS PERIOD   1
     6 TOTAL ITERATIONS
 
 SOLVING FOR HEAD 
 FLOW MODEL IS TRANSIENT
 FLOW MODEL CONTAINS CONSTANT-HEAD CELLS


 MAXIMUM STEPSIZE DURING WHICH ANY PARTICLE CANNOT MOVE MORE THAN ONE CELL
 =  5.800    (WHEN MIN. R.F.=1)  AT K=  28, I=   1, J=  54

 MAXIMUM STEPSIZE WHICH MEETS STABILITY CRITERION OF THE ADVECTION TERM
 (FOR PURE FINITE-DIFFERENCE OPTION, MIXELM=0) 
 =  4.265    (WHEN MIN. R.F.=1)  AT K=   2, I=   1, J=  41


 TOTAL NUMBER OF POINT SOURCES/SINKS PRESENT IN THE FLOW MODEL =    62

 MAXIMUM STEPSIZE WHICH MEETS STABILITY CRITERION OF THE SINK & SOURCE TERM
 =  154.3    (WHEN MIN. R.F.=1)  AT K=   2, I=   1, J= 120

 MAXIMUM STEPSIZE WHICH MEETS STABILITY CRITERION OF THE DISPERSION TERM
 =  20.29    (WHEN MIN. R.F.=1)  AT K=   1, I=   1, J=  31
     1 CALLS TO GCG PACKAGE FOR TRANSPORT TIME STEP   4 IN FLOW TIME STEP 325 STRESS PERIOD   1
     6 TOTAL ITERATIONS
  MAXIMUM CONCENTRATION CHANGES FOR EACH ITERATION:
  MAX. CHANGE LAYER,ROW,COL MAX. CHANGE LAYER,ROW,COL MAX. CHANGE LAYER,ROW,COL MAX. CHANGE LAYER,ROW,COL MAX. CHANGE LAYER,ROW,COL
 ------------------------------------------------------------------------------------------------------------------------------------
   0.3412E-01 (  2,  1, 77)  0.1236E-02 (  3,  1, 79)  0.7171E-04 (  2,  1, 78)  0.5071E-05 (  3,  1, 78)  0.2607E-06 (  4,  1, 81)
   0.1321E-07 (  4,  1, 64)


                                          ================================================
                                                         FROM TIME =   3250.0     TO    3260.0    

 
 SOLVING FOR HEAD 
 FLOW MODEL IS TRANSIENT
 FLOW MODEL CONTAINS CONSTANT-HEAD CELLS


 MAXIMUM STEPSIZE DURING WHICH ANY PARTICLE CANNOT MOVE MORE THAN ONE CELL
 =  5.793    (WHEN MIN. R.F.=1)  AT K=  28, I=   1, J=  54

 MAXIMUM STEPSIZE WHICH MEETS STABILITY CRITERION OF THE ADVECTION TERM
 (FOR PURE FINITE-DIFFERENCE OPTION, MIXELM=0) 
 =  3.929    (WHEN MIN. R.F.=1)  AT K=   2, I=   1, J=  41


 TOTAL NUMBER OF POINT SOURCES/SINKS PRESENT IN THE FLOW MODEL =    62

 MAXIMUM STEPSIZE WHICH MEETS STABILITY CRITERION OF THE SINK & SOURCE TERM
 =  151.4    (WHEN MIN. R.F.=1)  AT K=   2, I=   1, J= 120

 MAXIMUM STEPSIZE WHICH MEETS STABILITY CRITERION OF THE DISPERSION TERM
 =  20.29    (WHEN MIN. R.F.=1)  AT K=   1, I=   1, J=  31


     1 CALLS TO GCG PACKAGE FOR TRANSPORT TIME STEP   1 IN FLOW TIME STEP 326 STRESS PERIOD   1
     6 TOTAL ITERATIONS

 NO OUTPUT CONTROL FOR STRESS PERIOD    1   TIME STEP 326
 
 SOLVING FOR HEAD 
 FLOW MODEL IS TRANSIENT
 FLOW MODEL CONTAINS CONSTANT-HEAD CELLS


 MAXIMUM STEPSIZE DURING WHICH ANY PARTICLE CANNOT MOVE MORE THAN ONE CELL
 =  5.765    (WHEN MIN. R.F.=1)  AT K=   4, I=   1, J=  48

 MAXIMUM STEPSIZE WHICH MEETS STABILITY CRITERION OF THE ADVECTION TERM
 (FOR PURE FINITE-DIFFERENCE OPTION, MIXELM=0) 
 =  3.798    (WHEN MIN. R.F.=1)  AT K=   2, I=   1, J=  41


 TOTAL NUMBER OF POINT SOURCES/SINKS PRESENT IN THE FLOW MODEL =    62

 MAXIMUM STEPSIZE WHICH MEETS STABILITY CRITERION OF THE SINK & SOURCE TERM
 =  149.1    (WHEN MIN. R.F.=1)  AT K=   2, I=   1, J= 120

 MAXIMUM STEPSIZE WHICH MEETS STABILITY CRITERION OF THE DISPERSION TERM
 =  20.29    (WHEN MIN. R.F.=1)  AT K=   1, I=   1, J=  31
     1 CALLS TO GCG PACKAGE FOR TRANSPORT TIME STEP   2 IN FLOW TIME STEP 326 STRESS PERIOD   1
     6 TOTAL ITERATIONS
 
 SOLVING FOR HEAD 
 FLOW MODEL IS TRANSIENT
 FLOW MODEL CONTAINS CONSTANT-HEAD CELLS


 MAXIMUM STEPSIZE DURING WHICH ANY PARTICLE CANNOT MOVE MORE THAN ONE CELL
 =  5.654    (WHEN MIN. R.F.=1)  AT K=   4, I=   1, J=  48

 MAXIMUM STEPSIZE WHICH MEETS STABILITY CRITERION OF THE ADVECTION TERM
 (FOR PURE FINITE-DIFFERENCE OPTION, MIXELM=0) 
 =  3.844    (WHEN MIN. R.F.=1)  AT K=   2, I=   1, J=  41


 TOTAL NUMBER OF POINT SOURCES/SINKS PRESENT IN THE FLOW MODEL =    62

 MAXIMUM STEPSIZE WHICH MEETS STABILITY CRITERION OF THE SINK & SOURCE TERM
 =  147.8    (WHEN MIN. R.F.=1)  AT K=   2, I=   1, J= 120

 MAXIMUM STEPSIZE WHICH MEETS STABILITY CRITERION OF THE DISPERSION TERM
 =  20.29    (WHEN MIN. R.F.=1)  AT K=   1, I=   1, J=  31
     1 CALLS TO GCG PACKAGE FOR TRANSPORT TIME STEP   3 IN FLOW TIME STEP 326 STRESS PERIOD   1
     6 TOTAL ITERATIONS
 
 SOLVING FOR HEAD 
 FLOW MODEL IS TRANSIENT
 FLOW MODEL CONTAINS CONSTANT-HEAD CELLS


 MAXIMUM STEPSIZE DURING WHICH ANY PARTICLE CANNOT MOVE MORE THAN ONE CELL
 =  5.576    (WHEN MIN. R.F.=1)  AT K=   4, I=   1, J=  48

 MAXIMUM STEPSIZE WHICH MEETS STABILITY CRITERION OF THE ADVECTION TERM
 (FOR PURE FINITE-DIFFERENCE OPTION, MIXELM=0) 
 =  4.095    (WHEN MIN. R.F.=1)  AT K=   2, I=   1, J=  41


 TOTAL NUMBER OF POINT SOURCES/SINKS PRESENT IN THE FLOW MODEL =    62

 MAXIMUM STEPSIZE WHICH MEETS STABILITY CRITERION OF THE SINK & SOURCE TERM
 =  144.3    (WHEN MIN. R.F.=1)  AT K=   2, I=   1, J= 120

 MAXIMUM STEPSIZE WHICH MEETS STABILITY CRITERION OF THE DISPERSION TERM
 =  20.29    (WHEN MIN. R.F.=1)  AT K=   1, I=   1, J=  31
     1 CALLS TO GCG PACKAGE FOR TRANSPORT TIME STEP   4 IN FLOW TIME STEP 326 STRESS PERIOD   1
     4 TOTAL ITERATIONS
  MAXIMUM CONCENTRATION CHANGES FOR EACH ITERATION:
  MAX. CHANGE LAYER,ROW,COL MAX. CHANGE LAYER,ROW,COL MAX. CHANGE LAYER,ROW,COL MAX. CHANGE LAYER,ROW,COL MAX. CHANGE LAYER,ROW,COL
 ------------------------------------------------------------------------------------------------------------------------------------
   0.1236E-01 (  2,  1, 83)  0.1769E-03 (  3,  1, 78)  0.4514E-05 (  3,  1, 42)  0.9773E-07 (  3,  1, 77)


                                          ================================================
                                                         FROM TIME =   3260.0     TO    3270.0    

 
 SOLVING FOR HEAD 
 FLOW MODEL IS TRANSIENT
 FLOW MODEL CONTAINS CONSTANT-HEAD CELLS


 MAXIMUM STEPSIZE DURING WHICH ANY PARTICLE CANNOT MOVE MORE THAN ONE CELL
 =  5.553    (WHEN MIN. R.F.=1)  AT K=   4, I=   1, J=  48

 MAXIMUM STEPSIZE WHICH MEETS STABILITY CRITERION OF THE ADVECTION TERM
 (FOR PURE FINITE-DIFFERENCE OPTION, MIXELM=0) 
 =  4.069    (WHEN MIN. R.F.=1)  AT K=   2, I=   1, J=  42


 TOTAL NUMBER OF POINT SOURCES/SINKS PRESENT IN THE FLOW MODEL =    62

 MAXIMUM STEPSIZE WHICH MEETS STABILITY CRITERION OF THE SINK & SOURCE TERM
 =  151.3    (WHEN MIN. R.F.=1)  AT K=   2, I=   1, J= 120

 MAXIMUM STEPSIZE WHICH MEETS STABILITY CRITERION OF THE DISPERSION TERM
 =  20.29    (WHEN MIN. R.F.=1)  AT K=   1, I=   1, J=  31


     1 CALLS TO GCG PACKAGE FOR TRANSPORT TIME STEP   1 IN FLOW TIME STEP 327 STRESS PERIOD   1
     6 TOTAL ITERATIONS

 NO OUTPUT CONTROL FOR STRESS PERIOD    1   TIME STEP 327
 
 SOLVING FOR HEAD 
 FLOW MODEL IS TRANSIENT
 FLOW MODEL CONTAINS CONSTANT-HEAD CELLS


 MAXIMUM STEPSIZE DURING WHICH ANY PARTICLE CANNOT MOVE MORE THAN ONE CELL
 =  5.501    (WHEN MIN. R.F.=1)  AT K=   4, I=   1, J=  48

 MAXIMUM STEPSIZE WHICH MEETS STABILITY CRITERION OF THE ADVECTION TERM
 (FOR PURE FINITE-DIFFERENCE OPTION, MIXELM=0) 
 =  3.802    (WHEN MIN. R.F.=1)  AT K=   2, I=   1, J=  42


 TOTAL NUMBER OF POINT SOURCES/SINKS PRESENT IN THE FLOW MODEL =    62

 MAXIMUM STEPSIZE WHICH MEETS STABILITY CRITERION OF THE SINK & SOURCE TERM
 =  142.3    (WHEN MIN. R.F.=1)  AT K=   2, I=   1, J= 120

 MAXIMUM STEPSIZE WHICH MEETS STABILITY CRITERION OF THE DISPERSION TERM
 =  20.29    (WHEN MIN. R.F.=1)  AT K=   1, I=   1, J=  31
     1 CALLS TO GCG PACKAGE FOR TRANSPORT TIME STEP   2 IN FLOW TIME STEP 327 STRESS PERIOD   1
     6 TOTAL ITERATIONS
 
 SOLVING FOR HEAD 
 FLOW MODEL IS TRANSIENT
 FLOW MODEL CONTAINS CONSTANT-HEAD CELLS


 MAXIMUM STEPSIZE DURING WHICH ANY PARTICLE CANNOT MOVE MORE THAN ONE CELL
 =  5.359    (WHEN MIN. R.F.=1)  AT K=   4, I=   1, J=  74

 MAXIMUM STEPSIZE WHICH MEETS STABILITY CRITERION OF THE ADVECTION TERM
 (FOR PURE FINITE-DIFFERENCE OPTION, MIXELM=0) 
 =  3.729    (WHEN MIN. R.F.=1)  AT K=   2, I=   1, J=  42


 TOTAL NUMBER OF POINT SOURCES/SINKS PRESENT IN THE FLOW MODEL =    62

 MAXIMUM STEPSIZE WHICH MEETS STABILITY CRITERION OF THE SINK & SOURCE TERM
 =  142.9    (WHEN MIN. R.F.=1)  AT K=   2, I=   1, J= 120

 MAXIMUM STEPSIZE WHICH MEETS STABILITY CRITERION OF THE DISPERSION TERM
 =  20.29    (WHEN MIN. R.F.=1)  AT K=   1, I=   1, J=  31
     1 CALLS TO GCG PACKAGE FOR TRANSPORT TIME STEP   3 IN FLOW TIME STEP 327 STRESS PERIOD   1
     6 TOTAL ITERATIONS
 
 SOLVING FOR HEAD 
 FLOW MODEL IS TRANSIENT
 FLOW MODEL CONTAINS CONSTANT-HEAD CELLS


 MAXIMUM STEPSIZE DURING WHICH ANY PARTICLE CANNOT MOVE MORE THAN ONE CELL
 =  5.180    (WHEN MIN. R.F.=1)  AT K=   4, I=   1, J=  74

 MAXIMUM STEPSIZE WHICH MEETS STABILITY CRITERION OF THE ADVECTION TERM
 (FOR PURE FINITE-DIFFERENCE OPTION, MIXELM=0) 
 =  3.790    (WHEN MIN. R.F.=1)  AT K=   2, I=   1, J=  42


 TOTAL NUMBER OF POINT SOURCES/SINKS PRESENT IN THE FLOW MODEL =    62

 MAXIMUM STEPSIZE WHICH MEETS STABILITY CRITERION OF THE SINK & SOURCE TERM
 =  140.4    (WHEN MIN. R.F.=1)  AT K=   2, I=   1, J= 120

 MAXIMUM STEPSIZE WHICH MEETS STABILITY CRITERION OF THE DISPERSION TERM
 =  20.29    (WHEN MIN. R.F.=1)  AT K=   1, I=   1, J=  31
     1 CALLS TO GCG PACKAGE FOR TRANSPORT TIME STEP   4 IN FLOW TIME STEP 327 STRESS PERIOD   1
     5 TOTAL ITERATIONS
  MAXIMUM CONCENTRATION CHANGES FOR EACH ITERATION:
  MAX. CHANGE LAYER,ROW,COL MAX. CHANGE LAYER,ROW,COL MAX. CHANGE LAYER,ROW,COL MAX. CHANGE LAYER,ROW,COL MAX. CHANGE LAYER,ROW,COL
 ------------------------------------------------------------------------------------------------------------------------------------
   0.1332E-01 (  2,  1, 82)  0.1841E-03 (  2,  1, 82)  0.4699E-05 (  3,  1, 43)  0.1231E-06 (  3,  1, 45)  0.2304E-08 (  4,  1, 45)


                                          ================================================
                                                         FROM TIME =   3270.0     TO    3280.0    

 
 SOLVING FOR HEAD 
 FLOW MODEL IS TRANSIENT
 FLOW MODEL CONTAINS CONSTANT-HEAD CELLS


 MAXIMUM STEPSIZE DURING WHICH ANY PARTICLE CANNOT MOVE MORE THAN ONE CELL
 =  5.133    (WHEN MIN. R.F.=1)  AT K=   4, I=   1, J=  74

 MAXIMUM STEPSIZE WHICH MEETS STABILITY CRITERION OF THE ADVECTION TERM
 (FOR PURE FINITE-DIFFERENCE OPTION, MIXELM=0) 
 =  3.857    (WHEN MIN. R.F.=1)  AT K=   2, I=   1, J=  42


 TOTAL NUMBER OF POINT SOURCES/SINKS PRESENT IN THE FLOW MODEL =    62

 MAXIMUM STEPSIZE WHICH MEETS STABILITY CRITERION OF THE SINK & SOURCE TERM
 =  144.9    (WHEN MIN. R.F.=1)  AT K=   2, I=   1, J= 120

 MAXIMUM STEPSIZE WHICH MEETS STABILITY CRITERION OF THE DISPERSION TERM
 =  20.29    (WHEN MIN. R.F.=1)  AT K=   1, I=   1, J=  31


     1 CALLS TO GCG PACKAGE FOR TRANSPORT TIME STEP   1 IN FLOW TIME STEP 328 STRESS PERIOD   1
     6 TOTAL ITERATIONS

 NO OUTPUT CONTROL FOR STRESS PERIOD    1   TIME STEP 328
 
 SOLVING FOR HEAD 
 FLOW MODEL IS TRANSIENT
 FLOW MODEL CONTAINS CONSTANT-HEAD CELLS


 MAXIMUM STEPSIZE DURING WHICH ANY PARTICLE CANNOT MOVE MORE THAN ONE CELL
 =  5.058    (WHEN MIN. R.F.=1)  AT K=   4, I=   1, J=  74

 MAXIMUM STEPSIZE WHICH MEETS STABILITY CRITERION OF THE ADVECTION TERM
 (FOR PURE FINITE-DIFFERENCE OPTION, MIXELM=0) 
 =  3.795    (WHEN MIN. R.F.=1)  AT K=   2, I=   1, J=  80


 TOTAL NUMBER OF POINT SOURCES/SINKS PRESENT IN THE FLOW MODEL =    62

 MAXIMUM STEPSIZE WHICH MEETS STABILITY CRITERION OF THE SINK & SOURCE TERM
 =  138.2    (WHEN MIN. R.F.=1)  AT K=   2, I=   1, J= 120

 MAXIMUM STEPSIZE WHICH MEETS STABILITY CRITERION OF THE DISPERSION TERM
 =  20.29    (WHEN MIN. R.F.=1)  AT K=   1, I=   1, J=  31
     1 CALLS TO GCG PACKAGE FOR TRANSPORT TIME STEP   2 IN FLOW TIME STEP 328 STRESS PERIOD   1
     6 TOTAL ITERATIONS
 
 SOLVING FOR HEAD 
 FLOW MODEL IS TRANSIENT
 FLOW MODEL CONTAINS CONSTANT-HEAD CELLS


 MAXIMUM STEPSIZE DURING WHICH ANY PARTICLE CANNOT MOVE MORE THAN ONE CELL
 =  5.051    (WHEN MIN. R.F.=1)  AT K=   4, I=   1, J=  74

 MAXIMUM STEPSIZE WHICH MEETS STABILITY CRITERION OF THE ADVECTION TERM
 (FOR PURE FINITE-DIFFERENCE OPTION, MIXELM=0) 
 =  3.631    (WHEN MIN. R.F.=1)  AT K=   2, I=   1, J=  80


 TOTAL NUMBER OF POINT SOURCES/SINKS PRESENT IN THE FLOW MODEL =    62

 MAXIMUM STEPSIZE WHICH MEETS STABILITY CRITERION OF THE SINK & SOURCE TERM
 =  137.5    (WHEN MIN. R.F.=1)  AT K=   2, I=   1, J= 120

 MAXIMUM STEPSIZE WHICH MEETS STABILITY CRITERION OF THE DISPERSION TERM
 =  20.29    (WHEN MIN. R.F.=1)  AT K=   1, I=   1, J=  31
     1 CALLS TO GCG PACKAGE FOR TRANSPORT TIME STEP   3 IN FLOW TIME STEP 328 STRESS PERIOD   1
     6 TOTAL ITERATIONS
 
 SOLVING FOR HEAD 
 FLOW MODEL IS TRANSIENT
 FLOW MODEL CONTAINS CONSTANT-HEAD CELLS


 MAXIMUM STEPSIZE DURING WHICH ANY PARTICLE CANNOT MOVE MORE THAN ONE CELL
 =  5.106    (WHEN MIN. R.F.=1)  AT K=   4, I=   1, J=  74

 MAXIMUM STEPSIZE WHICH MEETS STABILITY CRITERION OF THE ADVECTION TERM
 (FOR PURE FINITE-DIFFERENCE OPTION, MIXELM=0) 
 =  3.629    (WHEN MIN. R.F.=1)  AT K=   2, I=   1, J=  80


 TOTAL NUMBER OF POINT SOURCES/SINKS PRESENT IN THE FLOW MODEL =    62

 MAXIMUM STEPSIZE WHICH MEETS STABILITY CRITERION OF THE SINK & SOURCE TERM
 =  138.8    (WHEN MIN. R.F.=1)  AT K=   2, I=   1, J= 120

 MAXIMUM STEPSIZE WHICH MEETS STABILITY CRITERION OF THE DISPERSION TERM
 =  20.29    (WHEN MIN. R.F.=1)  AT K=   1, I=   1, J=  31
     1 CALLS TO GCG PACKAGE FOR TRANSPORT TIME STEP   4 IN FLOW TIME STEP 328 STRESS PERIOD   1
     5 TOTAL ITERATIONS
  MAXIMUM CONCENTRATION CHANGES FOR EACH ITERATION:
  MAX. CHANGE LAYER,ROW,COL MAX. CHANGE LAYER,ROW,COL MAX. CHANGE LAYER,ROW,COL MAX. CHANGE LAYER,ROW,COL MAX. CHANGE LAYER,ROW,COL
 ------------------------------------------------------------------------------------------------------------------------------------
   0.1768E-01 (  2,  1, 81)  0.3422E-03 (  2,  1, 81)  0.1457E-04 (  3,  1, 79)  0.3954E-06 (  4,  1, 79)  0.1069E-07 (  4,  1, 77)


                                          ================================================
                                                         FROM TIME =   3280.0     TO    3290.0    

 
 SOLVING FOR HEAD 
 FLOW MODEL IS TRANSIENT
 FLOW MODEL CONTAINS CONSTANT-HEAD CELLS


 MAXIMUM STEPSIZE DURING WHICH ANY PARTICLE CANNOT MOVE MORE THAN ONE CELL
 =  5.150    (WHEN MIN. R.F.=1)  AT K=   5, I=   1, J=  74

 MAXIMUM STEPSIZE WHICH MEETS STABILITY CRITERION OF THE ADVECTION TERM
 (FOR PURE FINITE-DIFFERENCE OPTION, MIXELM=0) 
 =  3.724    (WHEN MIN. R.F.=1)  AT K=   2, I=   1, J=  80


 TOTAL NUMBER OF POINT SOURCES/SINKS PRESENT IN THE FLOW MODEL =    62

 MAXIMUM STEPSIZE WHICH MEETS STABILITY CRITERION OF THE SINK & SOURCE TERM
 =  147.4    (WHEN MIN. R.F.=1)  AT K=   2, I=   1, J= 120

 MAXIMUM STEPSIZE WHICH MEETS STABILITY CRITERION OF THE DISPERSION TERM
 =  20.29    (WHEN MIN. R.F.=1)  AT K=   1, I=   1, J=  31


     1 CALLS TO GCG PACKAGE FOR TRANSPORT TIME STEP   1 IN FLOW TIME STEP 329 STRESS PERIOD   1
     6 TOTAL ITERATIONS

 NO OUTPUT CONTROL FOR STRESS PERIOD    1   TIME STEP 329
 
 SOLVING FOR HEAD 
 FLOW MODEL IS TRANSIENT
 FLOW MODEL CONTAINS CONSTANT-HEAD CELLS


 MAXIMUM STEPSIZE DURING WHICH ANY PARTICLE CANNOT MOVE MORE THAN ONE CELL
 =  5.206    (WHEN MIN. R.F.=1)  AT K=   5, I=   1, J=  74

 MAXIMUM STEPSIZE WHICH MEETS STABILITY CRITERION OF THE ADVECTION TERM
 (FOR PURE FINITE-DIFFERENCE OPTION, MIXELM=0) 
 =  3.829    (WHEN MIN. R.F.=1)  AT K=   2, I=   1, J=  43


 TOTAL NUMBER OF POINT SOURCES/SINKS PRESENT IN THE FLOW MODEL =    62

 MAXIMUM STEPSIZE WHICH MEETS STABILITY CRITERION OF THE SINK & SOURCE TERM
 =  143.8    (WHEN MIN. R.F.=1)  AT K=   2, I=   1, J= 120

 MAXIMUM STEPSIZE WHICH MEETS STABILITY CRITERION OF THE DISPERSION TERM
 =  20.29    (WHEN MIN. R.F.=1)  AT K=   1, I=   1, J=  31
     1 CALLS TO GCG PACKAGE FOR TRANSPORT TIME STEP   2 IN FLOW TIME STEP 329 STRESS PERIOD   1
     6 TOTAL ITERATIONS
 
 SOLVING FOR HEAD 
 FLOW MODEL IS TRANSIENT
 FLOW MODEL CONTAINS CONSTANT-HEAD CELLS


 MAXIMUM STEPSIZE DURING WHICH ANY PARTICLE CANNOT MOVE MORE THAN ONE CELL
 =  5.302    (WHEN MIN. R.F.=1)  AT K=   5, I=   1, J=  74

 MAXIMUM STEPSIZE WHICH MEETS STABILITY CRITERION OF THE ADVECTION TERM
 (FOR PURE FINITE-DIFFERENCE OPTION, MIXELM=0) 
 =  3.664    (WHEN MIN. R.F.=1)  AT K=   2, I=   1, J=  79


 TOTAL NUMBER OF POINT SOURCES/SINKS PRESENT IN THE FLOW MODEL =    62

 MAXIMUM STEPSIZE WHICH MEETS STABILITY CRITERION OF THE SINK & SOURCE TERM
 =  143.3    (WHEN MIN. R.F.=1)  AT K=   2, I=   1, J= 120

 MAXIMUM STEPSIZE WHICH MEETS STABILITY CRITERION OF THE DISPERSION TERM
 =  20.29    (WHEN MIN. R.F.=1)  AT K=   1, I=   1, J=  31
     1 CALLS TO GCG PACKAGE FOR TRANSPORT TIME STEP   3 IN FLOW TIME STEP 329 STRESS PERIOD   1
     6 TOTAL ITERATIONS
 
 SOLVING FOR HEAD 
 FLOW MODEL IS TRANSIENT
 FLOW MODEL CONTAINS CONSTANT-HEAD CELLS


 MAXIMUM STEPSIZE DURING WHICH ANY PARTICLE CANNOT MOVE MORE THAN ONE CELL
 =  5.448    (WHEN MIN. R.F.=1)  AT K=   5, I=   1, J=  74

 MAXIMUM STEPSIZE WHICH MEETS STABILITY CRITERION OF THE ADVECTION TERM
 (FOR PURE FINITE-DIFFERENCE OPTION, MIXELM=0) 
 =  3.552    (WHEN MIN. R.F.=1)  AT K=   2, I=   1, J=  79


 TOTAL NUMBER OF POINT SOURCES/SINKS PRESENT IN THE FLOW MODEL =    62

 MAXIMUM STEPSIZE WHICH MEETS STABILITY CRITERION OF THE SINK & SOURCE TERM
 =  141.3    (WHEN MIN. R.F.=1)  AT K=   2, I=   1, J= 120

 MAXIMUM STEPSIZE WHICH MEETS STABILITY CRITERION OF THE DISPERSION TERM
 =  20.29    (WHEN MIN. R.F.=1)  AT K=   1, I=   1, J=  31
     1 CALLS TO GCG PACKAGE FOR TRANSPORT TIME STEP   4 IN FLOW TIME STEP 329 STRESS PERIOD   1
     5 TOTAL ITERATIONS
  MAXIMUM CONCENTRATION CHANGES FOR EACH ITERATION:
  MAX. CHANGE LAYER,ROW,COL MAX. CHANGE LAYER,ROW,COL MAX. CHANGE LAYER,ROW,COL MAX. CHANGE LAYER,ROW,COL MAX. CHANGE LAYER,ROW,COL
 ------------------------------------------------------------------------------------------------------------------------------------
   0.1851E-01 (  2,  1, 80)  0.4782E-03 (  2,  1, 80)  0.1765E-04 (  2,  1, 76)  0.1023E-05 (  3,  1, 76)  0.2958E-07 (  4,  1, 76)


                                          ================================================
                                                         FROM TIME =   3290.0     TO    3300.0    

 
 SOLVING FOR HEAD 
 FLOW MODEL IS TRANSIENT
 FLOW MODEL CONTAINS CONSTANT-HEAD CELLS


 MAXIMUM STEPSIZE DURING WHICH ANY PARTICLE CANNOT MOVE MORE THAN ONE CELL
 =  5.499    (WHEN MIN. R.F.=1)  AT K=   6, I=   1, J=  74

 MAXIMUM STEPSIZE WHICH MEETS STABILITY CRITERION OF THE ADVECTION TERM
 (FOR PURE FINITE-DIFFERENCE OPTION, MIXELM=0) 
 =  3.564    (WHEN MIN. R.F.=1)  AT K=   2, I=   1, J=  79


 TOTAL NUMBER OF POINT SOURCES/SINKS PRESENT IN THE FLOW MODEL =    62

 MAXIMUM STEPSIZE WHICH MEETS STABILITY CRITERION OF THE SINK & SOURCE TERM
 =  144.5    (WHEN MIN. R.F.=1)  AT K=   2, I=   1, J= 120

 MAXIMUM STEPSIZE WHICH MEETS STABILITY CRITERION OF THE DISPERSION TERM
 =  20.29    (WHEN MIN. R.F.=1)  AT K=   1, I=   1, J=  31


     1 CALLS TO GCG PACKAGE FOR TRANSPORT TIME STEP   1 IN FLOW TIME STEP 330 STRESS PERIOD   1
     6 TOTAL ITERATIONS

 NO OUTPUT CONTROL FOR STRESS PERIOD    1   TIME STEP 330
 
 SOLVING FOR HEAD 
 FLOW MODEL IS TRANSIENT
 FLOW MODEL CONTAINS CONSTANT-HEAD CELLS


 MAXIMUM STEPSIZE DURING WHICH ANY PARTICLE CANNOT MOVE MORE THAN ONE CELL
 =  5.611    (WHEN MIN. R.F.=1)  AT K=   6, I=   1, J=  74

 MAXIMUM STEPSIZE WHICH MEETS STABILITY CRITERION OF THE ADVECTION TERM
 (FOR PURE FINITE-DIFFERENCE OPTION, MIXELM=0) 
 =  3.666    (WHEN MIN. R.F.=1)  AT K=   2, I=   1, J=  79


 TOTAL NUMBER OF POINT SOURCES/SINKS PRESENT IN THE FLOW MODEL =    62

 MAXIMUM STEPSIZE WHICH MEETS STABILITY CRITERION OF THE SINK & SOURCE TERM
 =  142.7    (WHEN MIN. R.F.=1)  AT K=   2, I=   1, J= 120

 MAXIMUM STEPSIZE WHICH MEETS STABILITY CRITERION OF THE DISPERSION TERM
 =  20.29    (WHEN MIN. R.F.=1)  AT K=   1, I=   1, J=  31
     1 CALLS TO GCG PACKAGE FOR TRANSPORT TIME STEP   2 IN FLOW TIME STEP 330 STRESS PERIOD   1
     6 TOTAL ITERATIONS
 
 SOLVING FOR HEAD 
 FLOW MODEL IS TRANSIENT
 FLOW MODEL CONTAINS CONSTANT-HEAD CELLS


 MAXIMUM STEPSIZE DURING WHICH ANY PARTICLE CANNOT MOVE MORE THAN ONE CELL
 =  5.723    (WHEN MIN. R.F.=1)  AT K=  28, I=   1, J=  54

 MAXIMUM STEPSIZE WHICH MEETS STABILITY CRITERION OF THE ADVECTION TERM
 (FOR PURE FINITE-DIFFERENCE OPTION, MIXELM=0) 
 =  3.910    (WHEN MIN. R.F.=1)  AT K=   2, I=   1, J=  44


 TOTAL NUMBER OF POINT SOURCES/SINKS PRESENT IN THE FLOW MODEL =    62

 MAXIMUM STEPSIZE WHICH MEETS STABILITY CRITERION OF THE SINK & SOURCE TERM
 =  144.8    (WHEN MIN. R.F.=1)  AT K=   2, I=   1, J= 120

 MAXIMUM STEPSIZE WHICH MEETS STABILITY CRITERION OF THE DISPERSION TERM
 =  20.29    (WHEN MIN. R.F.=1)  AT K=   1, I=   1, J=  31
     1 CALLS TO GCG PACKAGE FOR TRANSPORT TIME STEP   3 IN FLOW TIME STEP 330 STRESS PERIOD   1
     6 TOTAL ITERATIONS
 
 SOLVING FOR HEAD 
 FLOW MODEL IS TRANSIENT
 FLOW MODEL CONTAINS CONSTANT-HEAD CELLS


 MAXIMUM STEPSIZE DURING WHICH ANY PARTICLE CANNOT MOVE MORE THAN ONE CELL
 =  5.717    (WHEN MIN. R.F.=1)  AT K=  28, I=   1, J=  54

 MAXIMUM STEPSIZE WHICH MEETS STABILITY CRITERION OF THE ADVECTION TERM
 (FOR PURE FINITE-DIFFERENCE OPTION, MIXELM=0) 
 =  3.841    (WHEN MIN. R.F.=1)  AT K=   2, I=   1, J=  78


 TOTAL NUMBER OF POINT SOURCES/SINKS PRESENT IN THE FLOW MODEL =    62

 MAXIMUM STEPSIZE WHICH MEETS STABILITY CRITERION OF THE SINK & SOURCE TERM
 =  145.5    (WHEN MIN. R.F.=1)  AT K=   2, I=   1, J= 120

 MAXIMUM STEPSIZE WHICH MEETS STABILITY CRITERION OF THE DISPERSION TERM
 =  20.29    (WHEN MIN. R.F.=1)  AT K=   1, I=   1, J=  31
     1 CALLS TO GCG PACKAGE FOR TRANSPORT TIME STEP   4 IN FLOW TIME STEP 330 STRESS PERIOD   1
     5 TOTAL ITERATIONS
  MAXIMUM CONCENTRATION CHANGES FOR EACH ITERATION:
  MAX. CHANGE LAYER,ROW,COL MAX. CHANGE LAYER,ROW,COL MAX. CHANGE LAYER,ROW,COL MAX. CHANGE LAYER,ROW,COL MAX. CHANGE LAYER,ROW,COL
 ------------------------------------------------------------------------------------------------------------------------------------
   0.2089E-01 (  2,  1, 80)  0.7187E-03 (  2,  1, 78)  0.2297E-04 (  3,  1, 78)  0.9718E-06 (  3,  1, 42)  0.4318E-07 (  3,  1, 48)


                                          ================================================
                                                         FROM TIME =   3300.0     TO    3310.0    

 
 SOLVING FOR HEAD 
 FLOW MODEL IS TRANSIENT
 FLOW MODEL CONTAINS CONSTANT-HEAD CELLS


 MAXIMUM STEPSIZE DURING WHICH ANY PARTICLE CANNOT MOVE MORE THAN ONE CELL
 =  5.718    (WHEN MIN. R.F.=1)  AT K=  28, I=   1, J=  54

 MAXIMUM STEPSIZE WHICH MEETS STABILITY CRITERION OF THE ADVECTION TERM
 (FOR PURE FINITE-DIFFERENCE OPTION, MIXELM=0) 
 =  3.718    (WHEN MIN. R.F.=1)  AT K=   2, I=   1, J=  78


 TOTAL NUMBER OF POINT SOURCES/SINKS PRESENT IN THE FLOW MODEL =    62

 MAXIMUM STEPSIZE WHICH MEETS STABILITY CRITERION OF THE SINK & SOURCE TERM
 =  147.8    (WHEN MIN. R.F.=1)  AT K=   2, I=   1, J= 120

 MAXIMUM STEPSIZE WHICH MEETS STABILITY CRITERION OF THE DISPERSION TERM
 =  20.29    (WHEN MIN. R.F.=1)  AT K=   1, I=   1, J=  31


     1 CALLS TO GCG PACKAGE FOR TRANSPORT TIME STEP   1 IN FLOW TIME STEP 331 STRESS PERIOD   1
     6 TOTAL ITERATIONS

 NO OUTPUT CONTROL FOR STRESS PERIOD    1   TIME STEP 331
 
 SOLVING FOR HEAD 
 FLOW MODEL IS TRANSIENT
 FLOW MODEL CONTAINS CONSTANT-HEAD CELLS


 MAXIMUM STEPSIZE DURING WHICH ANY PARTICLE CANNOT MOVE MORE THAN ONE CELL
 =  5.712    (WHEN MIN. R.F.=1)  AT K=  28, I=   1, J=  54

 MAXIMUM STEPSIZE WHICH MEETS STABILITY CRITERION OF THE ADVECTION TERM
 (FOR PURE FINITE-DIFFERENCE OPTION, MIXELM=0) 
 =  3.645    (WHEN MIN. R.F.=1)  AT K=   2, I=   1, J=  78


 TOTAL NUMBER OF POINT SOURCES/SINKS PRESENT IN THE FLOW MODEL =    62

 MAXIMUM STEPSIZE WHICH MEETS STABILITY CRITERION OF THE SINK & SOURCE TERM
 =  145.9    (WHEN MIN. R.F.=1)  AT K=   2, I=   1, J= 120

 MAXIMUM STEPSIZE WHICH MEETS STABILITY CRITERION OF THE DISPERSION TERM
 =  20.29    (WHEN MIN. R.F.=1)  AT K=   1, I=   1, J=  31
     1 CALLS TO GCG PACKAGE FOR TRANSPORT TIME STEP   2 IN FLOW TIME STEP 331 STRESS PERIOD   1
     6 TOTAL ITERATIONS
 
 SOLVING FOR HEAD 
 FLOW MODEL IS TRANSIENT
 FLOW MODEL CONTAINS CONSTANT-HEAD CELLS


 MAXIMUM STEPSIZE DURING WHICH ANY PARTICLE CANNOT MOVE MORE THAN ONE CELL
 =  5.706    (WHEN MIN. R.F.=1)  AT K=  28, I=   1, J=  54

 MAXIMUM STEPSIZE WHICH MEETS STABILITY CRITERION OF THE ADVECTION TERM
 (FOR PURE FINITE-DIFFERENCE OPTION, MIXELM=0) 
 =  3.698    (WHEN MIN. R.F.=1)  AT K=   2, I=   1, J=  78


 TOTAL NUMBER OF POINT SOURCES/SINKS PRESENT IN THE FLOW MODEL =    62

 MAXIMUM STEPSIZE WHICH MEETS STABILITY CRITERION OF THE SINK & SOURCE TERM
 =  147.5    (WHEN MIN. R.F.=1)  AT K=   2, I=   1, J= 120

 MAXIMUM STEPSIZE WHICH MEETS STABILITY CRITERION OF THE DISPERSION TERM
 =  20.29    (WHEN MIN. R.F.=1)  AT K=   1, I=   1, J=  31
     1 CALLS TO GCG PACKAGE FOR TRANSPORT TIME STEP   3 IN FLOW TIME STEP 331 STRESS PERIOD   1
     6 TOTAL ITERATIONS
 
 SOLVING FOR HEAD 
 FLOW MODEL IS TRANSIENT
 FLOW MODEL CONTAINS CONSTANT-HEAD CELLS


 MAXIMUM STEPSIZE DURING WHICH ANY PARTICLE CANNOT MOVE MORE THAN ONE CELL
 =  5.702    (WHEN MIN. R.F.=1)  AT K=  28, I=   1, J=  54

 MAXIMUM STEPSIZE WHICH MEETS STABILITY CRITERION OF THE ADVECTION TERM
 (FOR PURE FINITE-DIFFERENCE OPTION, MIXELM=0) 
 =  3.892    (WHEN MIN. R.F.=1)  AT K=   2, I=   1, J=  78


 TOTAL NUMBER OF POINT SOURCES/SINKS PRESENT IN THE FLOW MODEL =    62

 MAXIMUM STEPSIZE WHICH MEETS STABILITY CRITERION OF THE SINK & SOURCE TERM
 =  147.0    (WHEN MIN. R.F.=1)  AT K=   2, I=   1, J= 120

 MAXIMUM STEPSIZE WHICH MEETS STABILITY CRITERION OF THE DISPERSION TERM
 =  20.29    (WHEN MIN. R.F.=1)  AT K=   1, I=   1, J=  31
     1 CALLS TO GCG PACKAGE FOR TRANSPORT TIME STEP   4 IN FLOW TIME STEP 331 STRESS PERIOD   1
     5 TOTAL ITERATIONS
  MAXIMUM CONCENTRATION CHANGES FOR EACH ITERATION:
  MAX. CHANGE LAYER,ROW,COL MAX. CHANGE LAYER,ROW,COL MAX. CHANGE LAYER,ROW,COL MAX. CHANGE LAYER,ROW,COL MAX. CHANGE LAYER,ROW,COL
 ------------------------------------------------------------------------------------------------------------------------------------
   0.2001E-01 (  2,  1, 79)  0.4874E-03 (  2,  1, 77)  0.1672E-04 (  3,  1, 77)  0.5425E-06 (  3,  1, 80)  0.1619E-07 (  3,  1, 88)


                                          ================================================
                                                         FROM TIME =   3310.0     TO    3320.0    

 
 SOLVING FOR HEAD 
 FLOW MODEL IS TRANSIENT
 FLOW MODEL CONTAINS CONSTANT-HEAD CELLS


 MAXIMUM STEPSIZE DURING WHICH ANY PARTICLE CANNOT MOVE MORE THAN ONE CELL
 =  5.705    (WHEN MIN. R.F.=1)  AT K=  28, I=   1, J=  54

 MAXIMUM STEPSIZE WHICH MEETS STABILITY CRITERION OF THE ADVECTION TERM
 (FOR PURE FINITE-DIFFERENCE OPTION, MIXELM=0) 
 =  4.098    (WHEN MIN. R.F.=1)  AT K=   2, I=   1, J=  78


 TOTAL NUMBER OF POINT SOURCES/SINKS PRESENT IN THE FLOW MODEL =    62

 MAXIMUM STEPSIZE WHICH MEETS STABILITY CRITERION OF THE SINK & SOURCE TERM
 =  149.7    (WHEN MIN. R.F.=1)  AT K=   2, I=   1, J= 120

 MAXIMUM STEPSIZE WHICH MEETS STABILITY CRITERION OF THE DISPERSION TERM
 =  20.29    (WHEN MIN. R.F.=1)  AT K=   1, I=   1, J=  31


     1 CALLS TO GCG PACKAGE FOR TRANSPORT TIME STEP   1 IN FLOW TIME STEP 332 STRESS PERIOD   1
     6 TOTAL ITERATIONS

 NO OUTPUT CONTROL FOR STRESS PERIOD    1   TIME STEP 332
 
 SOLVING FOR HEAD 
 FLOW MODEL IS TRANSIENT
 FLOW MODEL CONTAINS CONSTANT-HEAD CELLS


 MAXIMUM STEPSIZE DURING WHICH ANY PARTICLE CANNOT MOVE MORE THAN ONE CELL
 =  5.700    (WHEN MIN. R.F.=1)  AT K=  28, I=   1, J=  54

 MAXIMUM STEPSIZE WHICH MEETS STABILITY CRITERION OF THE ADVECTION TERM
 (FOR PURE FINITE-DIFFERENCE OPTION, MIXELM=0) 
 =  4.039    (WHEN MIN. R.F.=1)  AT K=   2, I=   1, J=  77


 TOTAL NUMBER OF POINT SOURCES/SINKS PRESENT IN THE FLOW MODEL =    62

 MAXIMUM STEPSIZE WHICH MEETS STABILITY CRITERION OF THE SINK & SOURCE TERM
 =  147.3    (WHEN MIN. R.F.=1)  AT K=   2, I=   1, J= 120

 MAXIMUM STEPSIZE WHICH MEETS STABILITY CRITERION OF THE DISPERSION TERM
 =  20.29    (WHEN MIN. R.F.=1)  AT K=   1, I=   1, J=  31
     1 CALLS TO GCG PACKAGE FOR TRANSPORT TIME STEP   2 IN FLOW TIME STEP 332 STRESS PERIOD   1
     6 TOTAL ITERATIONS
 
 SOLVING FOR HEAD 
 FLOW MODEL IS TRANSIENT
 FLOW MODEL CONTAINS CONSTANT-HEAD CELLS


 MAXIMUM STEPSIZE DURING WHICH ANY PARTICLE CANNOT MOVE MORE THAN ONE CELL
 =  5.692    (WHEN MIN. R.F.=1)  AT K=  28, I=   1, J=  54

 MAXIMUM STEPSIZE WHICH MEETS STABILITY CRITERION OF THE ADVECTION TERM
 (FOR PURE FINITE-DIFFERENCE OPTION, MIXELM=0) 
 =  3.847    (WHEN MIN. R.F.=1)  AT K=   2, I=   1, J=  77


 TOTAL NUMBER OF POINT SOURCES/SINKS PRESENT IN THE FLOW MODEL =    62

 MAXIMUM STEPSIZE WHICH MEETS STABILITY CRITERION OF THE SINK & SOURCE TERM
 =  147.9    (WHEN MIN. R.F.=1)  AT K=   2, I=   1, J= 120

 MAXIMUM STEPSIZE WHICH MEETS STABILITY CRITERION OF THE DISPERSION TERM
 =  20.29    (WHEN MIN. R.F.=1)  AT K=   1, I=   1, J=  31
     1 CALLS TO GCG PACKAGE FOR TRANSPORT TIME STEP   3 IN FLOW TIME STEP 332 STRESS PERIOD   1
     6 TOTAL ITERATIONS
 
 SOLVING FOR HEAD 
 FLOW MODEL IS TRANSIENT
 FLOW MODEL CONTAINS CONSTANT-HEAD CELLS


 MAXIMUM STEPSIZE DURING WHICH ANY PARTICLE CANNOT MOVE MORE THAN ONE CELL
 =  5.686    (WHEN MIN. R.F.=1)  AT K=  28, I=   1, J=  54

 MAXIMUM STEPSIZE WHICH MEETS STABILITY CRITERION OF THE ADVECTION TERM
 (FOR PURE FINITE-DIFFERENCE OPTION, MIXELM=0) 
 =  3.814    (WHEN MIN. R.F.=1)  AT K=   2, I=   1, J=  77


 TOTAL NUMBER OF POINT SOURCES/SINKS PRESENT IN THE FLOW MODEL =    62

 MAXIMUM STEPSIZE WHICH MEETS STABILITY CRITERION OF THE SINK & SOURCE TERM
 =  147.2    (WHEN MIN. R.F.=1)  AT K=   2, I=   1, J= 120

 MAXIMUM STEPSIZE WHICH MEETS STABILITY CRITERION OF THE DISPERSION TERM
 =  20.29    (WHEN MIN. R.F.=1)  AT K=   1, I=   1, J=  31
     1 CALLS TO GCG PACKAGE FOR TRANSPORT TIME STEP   4 IN FLOW TIME STEP 332 STRESS PERIOD   1
     4 TOTAL ITERATIONS
  MAXIMUM CONCENTRATION CHANGES FOR EACH ITERATION:
  MAX. CHANGE LAYER,ROW,COL MAX. CHANGE LAYER,ROW,COL MAX. CHANGE LAYER,ROW,COL MAX. CHANGE LAYER,ROW,COL MAX. CHANGE LAYER,ROW,COL
 ------------------------------------------------------------------------------------------------------------------------------------
   0.1100E-01 (  2,  1, 78)  0.1849E-03 (  2,  1, 75)  0.3666E-05 (  2,  1, 79)  0.8441E-07 (  3,  1, 43)


                                          ================================================
                                                         FROM TIME =   3320.0     TO    3330.0    

 
 SOLVING FOR HEAD 
 FLOW MODEL IS TRANSIENT
 FLOW MODEL CONTAINS CONSTANT-HEAD CELLS


 MAXIMUM STEPSIZE DURING WHICH ANY PARTICLE CANNOT MOVE MORE THAN ONE CELL
 =  5.690    (WHEN MIN. R.F.=1)  AT K=  28, I=   1, J=  54

 MAXIMUM STEPSIZE WHICH MEETS STABILITY CRITERION OF THE ADVECTION TERM
 (FOR PURE FINITE-DIFFERENCE OPTION, MIXELM=0) 
 =  3.836    (WHEN MIN. R.F.=1)  AT K=   2, I=   1, J=  77


 TOTAL NUMBER OF POINT SOURCES/SINKS PRESENT IN THE FLOW MODEL =    62

 MAXIMUM STEPSIZE WHICH MEETS STABILITY CRITERION OF THE SINK & SOURCE TERM
 =  153.1    (WHEN MIN. R.F.=1)  AT K=   2, I=   1, J= 120

 MAXIMUM STEPSIZE WHICH MEETS STABILITY CRITERION OF THE DISPERSION TERM
 =  20.29    (WHEN MIN. R.F.=1)  AT K=   1, I=   1, J=  31


     1 CALLS TO GCG PACKAGE FOR TRANSPORT TIME STEP   1 IN FLOW TIME STEP 333 STRESS PERIOD   1
     6 TOTAL ITERATIONS

 NO OUTPUT CONTROL FOR STRESS PERIOD    1   TIME STEP 333
 
 SOLVING FOR HEAD 
 FLOW MODEL IS TRANSIENT
 FLOW MODEL CONTAINS CONSTANT-HEAD CELLS


 MAXIMUM STEPSIZE DURING WHICH ANY PARTICLE CANNOT MOVE MORE THAN ONE CELL
 =  5.687    (WHEN MIN. R.F.=1)  AT K=  28, I=   1, J=  54

 MAXIMUM STEPSIZE WHICH MEETS STABILITY CRITERION OF THE ADVECTION TERM
 (FOR PURE FINITE-DIFFERENCE OPTION, MIXELM=0) 
 =  3.960    (WHEN MIN. R.F.=1)  AT K=   2, I=   1, J=  77


 TOTAL NUMBER OF POINT SOURCES/SINKS PRESENT IN THE FLOW MODEL =    62

 MAXIMUM STEPSIZE WHICH MEETS STABILITY CRITERION OF THE SINK & SOURCE TERM
 =  147.4    (WHEN MIN. R.F.=1)  AT K=   2, I=   1, J= 120

 MAXIMUM STEPSIZE WHICH MEETS STABILITY CRITERION OF THE DISPERSION TERM
 =  20.29    (WHEN MIN. R.F.=1)  AT K=   1, I=   1, J=  31
     1 CALLS TO GCG PACKAGE FOR TRANSPORT TIME STEP   2 IN FLOW TIME STEP 333 STRESS PERIOD   1
     6 TOTAL ITERATIONS
 
 SOLVING FOR HEAD 
 FLOW MODEL IS TRANSIENT
 FLOW MODEL CONTAINS CONSTANT-HEAD CELLS


 MAXIMUM STEPSIZE DURING WHICH ANY PARTICLE CANNOT MOVE MORE THAN ONE CELL
 =  5.684    (WHEN MIN. R.F.=1)  AT K=  28, I=   1, J=  54

 MAXIMUM STEPSIZE WHICH MEETS STABILITY CRITERION OF THE ADVECTION TERM
 (FOR PURE FINITE-DIFFERENCE OPTION, MIXELM=0) 
 =  4.258    (WHEN MIN. R.F.=1)  AT K=   2, I=   1, J=  77


 TOTAL NUMBER OF POINT SOURCES/SINKS PRESENT IN THE FLOW MODEL =    62

 MAXIMUM STEPSIZE WHICH MEETS STABILITY CRITERION OF THE SINK & SOURCE TERM
 =  144.7    (WHEN MIN. R.F.=1)  AT K=   2, I=   1, J= 120

 MAXIMUM STEPSIZE WHICH MEETS STABILITY CRITERION OF THE DISPERSION TERM
 =  20.29    (WHEN MIN. R.F.=1)  AT K=   1, I=   1, J=  31
     1 CALLS TO GCG PACKAGE FOR TRANSPORT TIME STEP   3 IN FLOW TIME STEP 333 STRESS PERIOD   1
     6 TOTAL ITERATIONS
 
 SOLVING FOR HEAD 
 FLOW MODEL IS TRANSIENT
 FLOW MODEL CONTAINS CONSTANT-HEAD CELLS


 MAXIMUM STEPSIZE DURING WHICH ANY PARTICLE CANNOT MOVE MORE THAN ONE CELL
 =  5.680    (WHEN MIN. R.F.=1)  AT K=  28, I=   1, J=  54

 MAXIMUM STEPSIZE WHICH MEETS STABILITY CRITERION OF THE ADVECTION TERM
 (FOR PURE FINITE-DIFFERENCE OPTION, MIXELM=0) 
 =  4.649    (WHEN MIN. R.F.=1)  AT K=   2, I=   1, J=  46


 TOTAL NUMBER OF POINT SOURCES/SINKS PRESENT IN THE FLOW MODEL =    62

 MAXIMUM STEPSIZE WHICH MEETS STABILITY CRITERION OF THE SINK & SOURCE TERM
 =  142.9    (WHEN MIN. R.F.=1)  AT K=   2, I=   1, J= 120

 MAXIMUM STEPSIZE WHICH MEETS STABILITY CRITERION OF THE DISPERSION TERM
 =  20.29    (WHEN MIN. R.F.=1)  AT K=   1, I=   1, J=  31
     1 CALLS TO GCG PACKAGE FOR TRANSPORT TIME STEP   4 IN FLOW TIME STEP 333 STRESS PERIOD   1
     5 TOTAL ITERATIONS
  MAXIMUM CONCENTRATION CHANGES FOR EACH ITERATION:
  MAX. CHANGE LAYER,ROW,COL MAX. CHANGE LAYER,ROW,COL MAX. CHANGE LAYER,ROW,COL MAX. CHANGE LAYER,ROW,COL MAX. CHANGE LAYER,ROW,COL
 ------------------------------------------------------------------------------------------------------------------------------------
   0.1440E-01 (  2,  1, 38)  0.3520E-03 (  2,  1, 76)  0.7564E-05 (  2,  1, 76)  0.2258E-06 (  3,  1, 75)  0.7059E-08 (  4,  1, 75)


                                          ================================================
                                                         FROM TIME =   3330.0     TO    3340.0    

 
 SOLVING FOR HEAD 
 FLOW MODEL IS TRANSIENT
 FLOW MODEL CONTAINS CONSTANT-HEAD CELLS


 MAXIMUM STEPSIZE DURING WHICH ANY PARTICLE CANNOT MOVE MORE THAN ONE CELL
 =  5.685    (WHEN MIN. R.F.=1)  AT K=  28, I=   1, J=  54

 MAXIMUM STEPSIZE WHICH MEETS STABILITY CRITERION OF THE ADVECTION TERM
 (FOR PURE FINITE-DIFFERENCE OPTION, MIXELM=0) 
 =  4.514    (WHEN MIN. R.F.=1)  AT K=   2, I=   1, J=  76


 TOTAL NUMBER OF POINT SOURCES/SINKS PRESENT IN THE FLOW MODEL =    62

 MAXIMUM STEPSIZE WHICH MEETS STABILITY CRITERION OF THE SINK & SOURCE TERM
 =  148.3    (WHEN MIN. R.F.=1)  AT K=   2, I=   1, J= 120

 MAXIMUM STEPSIZE WHICH MEETS STABILITY CRITERION OF THE DISPERSION TERM
 =  20.29    (WHEN MIN. R.F.=1)  AT K=   1, I=   1, J=  31


     1 CALLS TO GCG PACKAGE FOR TRANSPORT TIME STEP   1 IN FLOW TIME STEP 334 STRESS PERIOD   1
     6 TOTAL ITERATIONS

 NO OUTPUT CONTROL FOR STRESS PERIOD    1   TIME STEP 334
 
 SOLVING FOR HEAD 
 FLOW MODEL IS TRANSIENT
 FLOW MODEL CONTAINS CONSTANT-HEAD CELLS


 MAXIMUM STEPSIZE DURING WHICH ANY PARTICLE CANNOT MOVE MORE THAN ONE CELL
 =  5.675    (WHEN MIN. R.F.=1)  AT K=  28, I=   1, J=  54

 MAXIMUM STEPSIZE WHICH MEETS STABILITY CRITERION OF THE ADVECTION TERM
 (FOR PURE FINITE-DIFFERENCE OPTION, MIXELM=0) 
 =  4.270    (WHEN MIN. R.F.=1)  AT K=   2, I=   1, J=  76


 TOTAL NUMBER OF POINT SOURCES/SINKS PRESENT IN THE FLOW MODEL =    62

 MAXIMUM STEPSIZE WHICH MEETS STABILITY CRITERION OF THE SINK & SOURCE TERM
 =  144.5    (WHEN MIN. R.F.=1)  AT K=   2, I=   1, J= 120

 MAXIMUM STEPSIZE WHICH MEETS STABILITY CRITERION OF THE DISPERSION TERM
 =  20.29    (WHEN MIN. R.F.=1)  AT K=   1, I=   1, J=  31
     1 CALLS TO GCG PACKAGE FOR TRANSPORT TIME STEP   2 IN FLOW TIME STEP 334 STRESS PERIOD   1
     6 TOTAL ITERATIONS
 
 SOLVING FOR HEAD 
 FLOW MODEL IS TRANSIENT
 FLOW MODEL CONTAINS CONSTANT-HEAD CELLS


 MAXIMUM STEPSIZE DURING WHICH ANY PARTICLE CANNOT MOVE MORE THAN ONE CELL
 =  5.666    (WHEN MIN. R.F.=1)  AT K=  28, I=   1, J=  54

 MAXIMUM STEPSIZE WHICH MEETS STABILITY CRITERION OF THE ADVECTION TERM
 (FOR PURE FINITE-DIFFERENCE OPTION, MIXELM=0) 
 =  4.111    (WHEN MIN. R.F.=1)  AT K=   2, I=   1, J=  40


 TOTAL NUMBER OF POINT SOURCES/SINKS PRESENT IN THE FLOW MODEL =    62

 MAXIMUM STEPSIZE WHICH MEETS STABILITY CRITERION OF THE SINK & SOURCE TERM
 =  144.9    (WHEN MIN. R.F.=1)  AT K=   2, I=   1, J= 120

 MAXIMUM STEPSIZE WHICH MEETS STABILITY CRITERION OF THE DISPERSION TERM
 =  20.29    (WHEN MIN. R.F.=1)  AT K=   1, I=   1, J=  31
     1 CALLS TO GCG PACKAGE FOR TRANSPORT TIME STEP   3 IN FLOW TIME STEP 334 STRESS PERIOD   1
     6 TOTAL ITERATIONS
  MAXIMUM CONCENTRATION CHANGES FOR EACH ITERATION:
  MAX. CHANGE LAYER,ROW,COL MAX. CHANGE LAYER,ROW,COL MAX. CHANGE LAYER,ROW,COL MAX. CHANGE LAYER,ROW,COL MAX. CHANGE LAYER,ROW,COL
 ------------------------------------------------------------------------------------------------------------------------------------
   0.3826E-01 (  2,  1, 77)  0.1652E-02 (  2,  1, 77)  0.1145E-03 (  2,  1, 78)  0.7870E-05 (  3,  1, 78)  0.3353E-06 (  3,  1, 79)
   0.2393E-07 (  4,  1, 77)


                                          ================================================
                                                         FROM TIME =   3340.0     TO    3350.0    

 
 SOLVING FOR HEAD 
 FLOW MODEL IS TRANSIENT
 FLOW MODEL CONTAINS CONSTANT-HEAD CELLS


 MAXIMUM STEPSIZE DURING WHICH ANY PARTICLE CANNOT MOVE MORE THAN ONE CELL
 =  5.663    (WHEN MIN. R.F.=1)  AT K=  28, I=   1, J=  54

 MAXIMUM STEPSIZE WHICH MEETS STABILITY CRITERION OF THE ADVECTION TERM
 (FOR PURE FINITE-DIFFERENCE OPTION, MIXELM=0) 
 =  4.037    (WHEN MIN. R.F.=1)  AT K=   2, I=   1, J=  40


 TOTAL NUMBER OF POINT SOURCES/SINKS PRESENT IN THE FLOW MODEL =    62

 MAXIMUM STEPSIZE WHICH MEETS STABILITY CRITERION OF THE SINK & SOURCE TERM
 =  143.1    (WHEN MIN. R.F.=1)  AT K=   2, I=   1, J= 120

 MAXIMUM STEPSIZE WHICH MEETS STABILITY CRITERION OF THE DISPERSION TERM
 =  20.29    (WHEN MIN. R.F.=1)  AT K=   1, I=   1, J=  31


     1 CALLS TO GCG PACKAGE FOR TRANSPORT TIME STEP   1 IN FLOW TIME STEP 335 STRESS PERIOD   1
     6 TOTAL ITERATIONS

 NO OUTPUT CONTROL FOR STRESS PERIOD    1   TIME STEP 335
 
 SOLVING FOR HEAD 
 FLOW MODEL IS TRANSIENT
 FLOW MODEL CONTAINS CONSTANT-HEAD CELLS


 MAXIMUM STEPSIZE DURING WHICH ANY PARTICLE CANNOT MOVE MORE THAN ONE CELL
 =  5.662    (WHEN MIN. R.F.=1)  AT K=  28, I=   1, J=  54

 MAXIMUM STEPSIZE WHICH MEETS STABILITY CRITERION OF THE ADVECTION TERM
 (FOR PURE FINITE-DIFFERENCE OPTION, MIXELM=0) 
 =  4.224    (WHEN MIN. R.F.=1)  AT K=   2, I=   1, J=  40


 TOTAL NUMBER OF POINT SOURCES/SINKS PRESENT IN THE FLOW MODEL =    62

 MAXIMUM STEPSIZE WHICH MEETS STABILITY CRITERION OF THE SINK & SOURCE TERM
 =  141.1    (WHEN MIN. R.F.=1)  AT K=   2, I=   1, J= 120

 MAXIMUM STEPSIZE WHICH MEETS STABILITY CRITERION OF THE DISPERSION TERM
 =  20.29    (WHEN MIN. R.F.=1)  AT K=   1, I=   1, J=  31
     1 CALLS TO GCG PACKAGE FOR TRANSPORT TIME STEP   2 IN FLOW TIME STEP 335 STRESS PERIOD   1
     6 TOTAL ITERATIONS
 
 SOLVING FOR HEAD 
 FLOW MODEL IS TRANSIENT
 FLOW MODEL CONTAINS CONSTANT-HEAD CELLS


 MAXIMUM STEPSIZE DURING WHICH ANY PARTICLE CANNOT MOVE MORE THAN ONE CELL
 =  5.663    (WHEN MIN. R.F.=1)  AT K=  28, I=   1, J=  54

 MAXIMUM STEPSIZE WHICH MEETS STABILITY CRITERION OF THE ADVECTION TERM
 (FOR PURE FINITE-DIFFERENCE OPTION, MIXELM=0) 
 =  4.015    (WHEN MIN. R.F.=1)  AT K=   2, I=   1, J=  41


 TOTAL NUMBER OF POINT SOURCES/SINKS PRESENT IN THE FLOW MODEL =    62

 MAXIMUM STEPSIZE WHICH MEETS STABILITY CRITERION OF THE SINK & SOURCE TERM
 =  140.8    (WHEN MIN. R.F.=1)  AT K=   2, I=   1, J= 120

 MAXIMUM STEPSIZE WHICH MEETS STABILITY CRITERION OF THE DISPERSION TERM
 =  20.29    (WHEN MIN. R.F.=1)  AT K=   1, I=   1, J=  31
     1 CALLS TO GCG PACKAGE FOR TRANSPORT TIME STEP   3 IN FLOW TIME STEP 335 STRESS PERIOD   1
     6 TOTAL ITERATIONS
 
 SOLVING FOR HEAD 
 FLOW MODEL IS TRANSIENT
 FLOW MODEL CONTAINS CONSTANT-HEAD CELLS


 MAXIMUM STEPSIZE DURING WHICH ANY PARTICLE CANNOT MOVE MORE THAN ONE CELL
 =  5.662    (WHEN MIN. R.F.=1)  AT K=  28, I=   1, J=  54

 MAXIMUM STEPSIZE WHICH MEETS STABILITY CRITERION OF THE ADVECTION TERM
 (FOR PURE FINITE-DIFFERENCE OPTION, MIXELM=0) 
 =  3.814    (WHEN MIN. R.F.=1)  AT K=   2, I=   1, J=  41


 TOTAL NUMBER OF POINT SOURCES/SINKS PRESENT IN THE FLOW MODEL =    62

 MAXIMUM STEPSIZE WHICH MEETS STABILITY CRITERION OF THE SINK & SOURCE TERM
 =  139.6    (WHEN MIN. R.F.=1)  AT K=   2, I=   1, J= 120

 MAXIMUM STEPSIZE WHICH MEETS STABILITY CRITERION OF THE DISPERSION TERM
 =  20.29    (WHEN MIN. R.F.=1)  AT K=   1, I=   1, J=  31
     1 CALLS TO GCG PACKAGE FOR TRANSPORT TIME STEP   4 IN FLOW TIME STEP 335 STRESS PERIOD   1
     4 TOTAL ITERATIONS
  MAXIMUM CONCENTRATION CHANGES FOR EACH ITERATION:
  MAX. CHANGE LAYER,ROW,COL MAX. CHANGE LAYER,ROW,COL MAX. CHANGE LAYER,ROW,COL MAX. CHANGE LAYER,ROW,COL MAX. CHANGE LAYER,ROW,COL
 ------------------------------------------------------------------------------------------------------------------------------------
   0.8918E-02 (  2,  1, 83)  0.1126E-03 (  2,  1, 83)  0.1485E-05 (  2,  1, 84)  0.2592E-07 (  3,  1, 84)


                                          ================================================
                                                         FROM TIME =   3350.0     TO    3360.0    

 
 SOLVING FOR HEAD 
 FLOW MODEL IS TRANSIENT
 FLOW MODEL CONTAINS CONSTANT-HEAD CELLS


 MAXIMUM STEPSIZE DURING WHICH ANY PARTICLE CANNOT MOVE MORE THAN ONE CELL
 =  5.667    (WHEN MIN. R.F.=1)  AT K=  28, I=   1, J=  54

 MAXIMUM STEPSIZE WHICH MEETS STABILITY CRITERION OF THE ADVECTION TERM
 (FOR PURE FINITE-DIFFERENCE OPTION, MIXELM=0) 
 =  3.797    (WHEN MIN. R.F.=1)  AT K=   2, I=   1, J=  41


 TOTAL NUMBER OF POINT SOURCES/SINKS PRESENT IN THE FLOW MODEL =    62

 MAXIMUM STEPSIZE WHICH MEETS STABILITY CRITERION OF THE SINK & SOURCE TERM
 =  149.8    (WHEN MIN. R.F.=1)  AT K=   2, I=   1, J= 120

 MAXIMUM STEPSIZE WHICH MEETS STABILITY CRITERION OF THE DISPERSION TERM
 =  20.29    (WHEN MIN. R.F.=1)  AT K=   1, I=   1, J=  31


     1 CALLS TO GCG PACKAGE FOR TRANSPORT TIME STEP   1 IN FLOW TIME STEP 336 STRESS PERIOD   1
     6 TOTAL ITERATIONS

 NO OUTPUT CONTROL FOR STRESS PERIOD    1   TIME STEP 336
 
 SOLVING FOR HEAD 
 FLOW MODEL IS TRANSIENT
 FLOW MODEL CONTAINS CONSTANT-HEAD CELLS


 MAXIMUM STEPSIZE DURING WHICH ANY PARTICLE CANNOT MOVE MORE THAN ONE CELL
 =  5.668    (WHEN MIN. R.F.=1)  AT K=  28, I=   1, J=  54

 MAXIMUM STEPSIZE WHICH MEETS STABILITY CRITERION OF THE ADVECTION TERM
 (FOR PURE FINITE-DIFFERENCE OPTION, MIXELM=0) 
 =  3.812    (WHEN MIN. R.F.=1)  AT K=   2, I=   1, J=  41


 TOTAL NUMBER OF POINT SOURCES/SINKS PRESENT IN THE FLOW MODEL =    62

 MAXIMUM STEPSIZE WHICH MEETS STABILITY CRITERION OF THE SINK & SOURCE TERM
 =  144.4    (WHEN MIN. R.F.=1)  AT K=   2, I=   1, J= 120

 MAXIMUM STEPSIZE WHICH MEETS STABILITY CRITERION OF THE DISPERSION TERM
 =  20.29    (WHEN MIN. R.F.=1)  AT K=   1, I=   1, J=  31
     1 CALLS TO GCG PACKAGE FOR TRANSPORT TIME STEP   2 IN FLOW TIME STEP 336 STRESS PERIOD   1
     6 TOTAL ITERATIONS
 
 SOLVING FOR HEAD 
 FLOW MODEL IS TRANSIENT
 FLOW MODEL CONTAINS CONSTANT-HEAD CELLS


 MAXIMUM STEPSIZE DURING WHICH ANY PARTICLE CANNOT MOVE MORE THAN ONE CELL
 =  5.668    (WHEN MIN. R.F.=1)  AT K=  28, I=   1, J=  54

 MAXIMUM STEPSIZE WHICH MEETS STABILITY CRITERION OF THE ADVECTION TERM
 (FOR PURE FINITE-DIFFERENCE OPTION, MIXELM=0) 
 =  3.998    (WHEN MIN. R.F.=1)  AT K=   2, I=   1, J=  41


 TOTAL NUMBER OF POINT SOURCES/SINKS PRESENT IN THE FLOW MODEL =    62

 MAXIMUM STEPSIZE WHICH MEETS STABILITY CRITERION OF THE SINK & SOURCE TERM
 =  145.3    (WHEN MIN. R.F.=1)  AT K=   2, I=   1, J= 120

 MAXIMUM STEPSIZE WHICH MEETS STABILITY CRITERION OF THE DISPERSION TERM
 =  20.29    (WHEN MIN. R.F.=1)  AT K=   1, I=   1, J=  31
     1 CALLS TO GCG PACKAGE FOR TRANSPORT TIME STEP   3 IN FLOW TIME STEP 336 STRESS PERIOD   1
     6 TOTAL ITERATIONS
 
 SOLVING FOR HEAD 
 FLOW MODEL IS TRANSIENT
 FLOW MODEL CONTAINS CONSTANT-HEAD CELLS


 MAXIMUM STEPSIZE DURING WHICH ANY PARTICLE CANNOT MOVE MORE THAN ONE CELL
 =  5.499    (WHEN MIN. R.F.=1)  AT K=   4, I=   1, J=  74

 MAXIMUM STEPSIZE WHICH MEETS STABILITY CRITERION OF THE ADVECTION TERM
 (FOR PURE FINITE-DIFFERENCE OPTION, MIXELM=0) 
 =  3.933    (WHEN MIN. R.F.=1)  AT K=   2, I=   1, J=  42


 TOTAL NUMBER OF POINT SOURCES/SINKS PRESENT IN THE FLOW MODEL =    62

 MAXIMUM STEPSIZE WHICH MEETS STABILITY CRITERION OF THE SINK & SOURCE TERM
 =  145.5    (WHEN MIN. R.F.=1)  AT K=   2, I=   1, J= 120

 MAXIMUM STEPSIZE WHICH MEETS STABILITY CRITERION OF THE DISPERSION TERM
 =  20.29    (WHEN MIN. R.F.=1)  AT K=   1, I=   1, J=  31
     1 CALLS TO GCG PACKAGE FOR TRANSPORT TIME STEP   4 IN FLOW TIME STEP 336 STRESS PERIOD   1
     5 TOTAL ITERATIONS
  MAXIMUM CONCENTRATION CHANGES FOR EACH ITERATION:
  MAX. CHANGE LAYER,ROW,COL MAX. CHANGE LAYER,ROW,COL MAX. CHANGE LAYER,ROW,COL MAX. CHANGE LAYER,ROW,COL MAX. CHANGE LAYER,ROW,COL
 ------------------------------------------------------------------------------------------------------------------------------------
   0.1630E-01 (  2,  1, 76)  0.4279E-03 (  2,  1, 82)  0.1170E-04 (  2,  1, 83)  0.4306E-06 (  3,  1, 45)  0.1067E-07 (  4,  1, 45)


                                          ================================================
                                                         FROM TIME =   3360.0     TO    3370.0    

 
 SOLVING FOR HEAD 
 FLOW MODEL IS TRANSIENT
 FLOW MODEL CONTAINS CONSTANT-HEAD CELLS


 MAXIMUM STEPSIZE DURING WHICH ANY PARTICLE CANNOT MOVE MORE THAN ONE CELL
 =  5.375    (WHEN MIN. R.F.=1)  AT K=   4, I=   1, J=  74

 MAXIMUM STEPSIZE WHICH MEETS STABILITY CRITERION OF THE ADVECTION TERM
 (FOR PURE FINITE-DIFFERENCE OPTION, MIXELM=0) 
 =  3.830    (WHEN MIN. R.F.=1)  AT K=   2, I=   1, J=  42


 TOTAL NUMBER OF POINT SOURCES/SINKS PRESENT IN THE FLOW MODEL =    62

 MAXIMUM STEPSIZE WHICH MEETS STABILITY CRITERION OF THE SINK & SOURCE TERM
 =  150.0    (WHEN MIN. R.F.=1)  AT K=   2, I=   1, J= 120

 MAXIMUM STEPSIZE WHICH MEETS STABILITY CRITERION OF THE DISPERSION TERM
 =  20.29    (WHEN MIN. R.F.=1)  AT K=   1, I=   1, J=  31


     1 CALLS TO GCG PACKAGE FOR TRANSPORT TIME STEP   1 IN FLOW TIME STEP 337 STRESS PERIOD   1
     6 TOTAL ITERATIONS

 NO OUTPUT CONTROL FOR STRESS PERIOD    1   TIME STEP 337
 
 SOLVING FOR HEAD 
 FLOW MODEL IS TRANSIENT
 FLOW MODEL CONTAINS CONSTANT-HEAD CELLS


 MAXIMUM STEPSIZE DURING WHICH ANY PARTICLE CANNOT MOVE MORE THAN ONE CELL
 =  5.188    (WHEN MIN. R.F.=1)  AT K=   4, I=   1, J=  74

 MAXIMUM STEPSIZE WHICH MEETS STABILITY CRITERION OF THE ADVECTION TERM
 (FOR PURE FINITE-DIFFERENCE OPTION, MIXELM=0) 
 =  3.732    (WHEN MIN. R.F.=1)  AT K=   2, I=   1, J=  42


 TOTAL NUMBER OF POINT SOURCES/SINKS PRESENT IN THE FLOW MODEL =    62

 MAXIMUM STEPSIZE WHICH MEETS STABILITY CRITERION OF THE SINK & SOURCE TERM
 =  146.7    (WHEN MIN. R.F.=1)  AT K=   2, I=   1, J= 120

 MAXIMUM STEPSIZE WHICH MEETS STABILITY CRITERION OF THE DISPERSION TERM
 =  20.29    (WHEN MIN. R.F.=1)  AT K=   1, I=   1, J=  31
     1 CALLS TO GCG PACKAGE FOR TRANSPORT TIME STEP   2 IN FLOW TIME STEP 337 STRESS PERIOD   1
     6 TOTAL ITERATIONS
 
 SOLVING FOR HEAD 
 FLOW MODEL IS TRANSIENT
 FLOW MODEL CONTAINS CONSTANT-HEAD CELLS


 MAXIMUM STEPSIZE DURING WHICH ANY PARTICLE CANNOT MOVE MORE THAN ONE CELL
 =  5.081    (WHEN MIN. R.F.=1)  AT K=   4, I=   1, J=  74

 MAXIMUM STEPSIZE WHICH MEETS STABILITY CRITERION OF THE ADVECTION TERM
 (FOR PURE FINITE-DIFFERENCE OPTION, MIXELM=0) 
 =  3.773    (WHEN MIN. R.F.=1)  AT K=   2, I=   1, J=  42


 TOTAL NUMBER OF POINT SOURCES/SINKS PRESENT IN THE FLOW MODEL =    62

 MAXIMUM STEPSIZE WHICH MEETS STABILITY CRITERION OF THE SINK & SOURCE TERM
 =  147.9    (WHEN MIN. R.F.=1)  AT K=   2, I=   1, J= 120

 MAXIMUM STEPSIZE WHICH MEETS STABILITY CRITERION OF THE DISPERSION TERM
 =  20.29    (WHEN MIN. R.F.=1)  AT K=   1, I=   1, J=  31
     1 CALLS TO GCG PACKAGE FOR TRANSPORT TIME STEP   3 IN FLOW TIME STEP 337 STRESS PERIOD   1
     6 TOTAL ITERATIONS
 
 SOLVING FOR HEAD 
 FLOW MODEL IS TRANSIENT
 FLOW MODEL CONTAINS CONSTANT-HEAD CELLS


 MAXIMUM STEPSIZE DURING WHICH ANY PARTICLE CANNOT MOVE MORE THAN ONE CELL
 =  5.046    (WHEN MIN. R.F.=1)  AT K=   4, I=   1, J=  74

 MAXIMUM STEPSIZE WHICH MEETS STABILITY CRITERION OF THE ADVECTION TERM
 (FOR PURE FINITE-DIFFERENCE OPTION, MIXELM=0) 
 =  3.720    (WHEN MIN. R.F.=1)  AT K=   2, I=   1, J=  80


 TOTAL NUMBER OF POINT SOURCES/SINKS PRESENT IN THE FLOW MODEL =    62

 MAXIMUM STEPSIZE WHICH MEETS STABILITY CRITERION OF THE SINK & SOURCE TERM
 =  149.4    (WHEN MIN. R.F.=1)  AT K=   2, I=   1, J= 120

 MAXIMUM STEPSIZE WHICH MEETS STABILITY CRITERION OF THE DISPERSION TERM
 =  20.29    (WHEN MIN. R.F.=1)  AT K=   1, I=   1, J=  31
     1 CALLS TO GCG PACKAGE FOR TRANSPORT TIME STEP   4 IN FLOW TIME STEP 337 STRESS PERIOD   1
     5 TOTAL ITERATIONS
  MAXIMUM CONCENTRATION CHANGES FOR EACH ITERATION:
  MAX. CHANGE LAYER,ROW,COL MAX. CHANGE LAYER,ROW,COL MAX. CHANGE LAYER,ROW,COL MAX. CHANGE LAYER,ROW,COL MAX. CHANGE LAYER,ROW,COL
 ------------------------------------------------------------------------------------------------------------------------------------
   0.1490E-01 (  2,  1, 41)  0.3240E-03 (  2,  1, 81)  0.1047E-04 (  3,  1, 43)  0.3357E-06 (  3,  1, 45)  0.7859E-08 (  4,  1, 45)


                                          ================================================
                                                         FROM TIME =   3370.0     TO    3380.0    

 
 SOLVING FOR HEAD 
 FLOW MODEL IS TRANSIENT
 FLOW MODEL CONTAINS CONSTANT-HEAD CELLS


 MAXIMUM STEPSIZE DURING WHICH ANY PARTICLE CANNOT MOVE MORE THAN ONE CELL
 =  5.049    (WHEN MIN. R.F.=1)  AT K=   4, I=   1, J=  74

 MAXIMUM STEPSIZE WHICH MEETS STABILITY CRITERION OF THE ADVECTION TERM
 (FOR PURE FINITE-DIFFERENCE OPTION, MIXELM=0) 
 =  3.671    (WHEN MIN. R.F.=1)  AT K=   2, I=   1, J=  80


 TOTAL NUMBER OF POINT SOURCES/SINKS PRESENT IN THE FLOW MODEL =    62

 MAXIMUM STEPSIZE WHICH MEETS STABILITY CRITERION OF THE SINK & SOURCE TERM
 =  159.0    (WHEN MIN. R.F.=1)  AT K=   2, I=   1, J= 120

 MAXIMUM STEPSIZE WHICH MEETS STABILITY CRITERION OF THE DISPERSION TERM
 =  20.29    (WHEN MIN. R.F.=1)  AT K=   1, I=   1, J=  31


     1 CALLS TO GCG PACKAGE FOR TRANSPORT TIME STEP   1 IN FLOW TIME STEP 338 STRESS PERIOD   1
     6 TOTAL ITERATIONS

 NO OUTPUT CONTROL FOR STRESS PERIOD    1   TIME STEP 338
 
 SOLVING FOR HEAD 
 FLOW MODEL IS TRANSIENT
 FLOW MODEL CONTAINS CONSTANT-HEAD CELLS


 MAXIMUM STEPSIZE DURING WHICH ANY PARTICLE CANNOT MOVE MORE THAN ONE CELL
 =  5.103    (WHEN MIN. R.F.=1)  AT K=   4, I=   1, J=  74

 MAXIMUM STEPSIZE WHICH MEETS STABILITY CRITERION OF THE ADVECTION TERM
 (FOR PURE FINITE-DIFFERENCE OPTION, MIXELM=0) 
 =  3.653    (WHEN MIN. R.F.=1)  AT K=   2, I=   1, J=  80


 TOTAL NUMBER OF POINT SOURCES/SINKS PRESENT IN THE FLOW MODEL =    62

 MAXIMUM STEPSIZE WHICH MEETS STABILITY CRITERION OF THE SINK & SOURCE TERM
 =  158.3    (WHEN MIN. R.F.=1)  AT K=   2, I=   1, J= 120

 MAXIMUM STEPSIZE WHICH MEETS STABILITY CRITERION OF THE DISPERSION TERM
 =  20.29    (WHEN MIN. R.F.=1)  AT K=   1, I=   1, J=  31
     1 CALLS TO GCG PACKAGE FOR TRANSPORT TIME STEP   2 IN FLOW TIME STEP 338 STRESS PERIOD   1
     6 TOTAL ITERATIONS
 
 SOLVING FOR HEAD 
 FLOW MODEL IS TRANSIENT
 FLOW MODEL CONTAINS CONSTANT-HEAD CELLS


 MAXIMUM STEPSIZE DURING WHICH ANY PARTICLE CANNOT MOVE MORE THAN ONE CELL
 =  5.163    (WHEN MIN. R.F.=1)  AT K=   5, I=   1, J=  74

 MAXIMUM STEPSIZE WHICH MEETS STABILITY CRITERION OF THE ADVECTION TERM
 (FOR PURE FINITE-DIFFERENCE OPTION, MIXELM=0) 
 =  3.800    (WHEN MIN. R.F.=1)  AT K=   2, I=   1, J=  43


 TOTAL NUMBER OF POINT SOURCES/SINKS PRESENT IN THE FLOW MODEL =    62

 MAXIMUM STEPSIZE WHICH MEETS STABILITY CRITERION OF THE SINK & SOURCE TERM
 =  164.1    (WHEN MIN. R.F.=1)  AT K=   2, I=   1, J= 120

 MAXIMUM STEPSIZE WHICH MEETS STABILITY CRITERION OF THE DISPERSION TERM
 =  20.29    (WHEN MIN. R.F.=1)  AT K=   1, I=   1, J=  31
     1 CALLS TO GCG PACKAGE FOR TRANSPORT TIME STEP   3 IN FLOW TIME STEP 338 STRESS PERIOD   1
     6 TOTAL ITERATIONS
 
 SOLVING FOR HEAD 
 FLOW MODEL IS TRANSIENT
 FLOW MODEL CONTAINS CONSTANT-HEAD CELLS


 MAXIMUM STEPSIZE DURING WHICH ANY PARTICLE CANNOT MOVE MORE THAN ONE CELL
 =  5.238    (WHEN MIN. R.F.=1)  AT K=   5, I=   1, J=  74

 MAXIMUM STEPSIZE WHICH MEETS STABILITY CRITERION OF THE ADVECTION TERM
 (FOR PURE FINITE-DIFFERENCE OPTION, MIXELM=0) 
 =  3.788    (WHEN MIN. R.F.=1)  AT K=   2, I=   1, J=  43


 TOTAL NUMBER OF POINT SOURCES/SINKS PRESENT IN THE FLOW MODEL =    62

 MAXIMUM STEPSIZE WHICH MEETS STABILITY CRITERION OF THE SINK & SOURCE TERM
 =  166.8    (WHEN MIN. R.F.=1)  AT K=   2, I=   1, J= 120

 MAXIMUM STEPSIZE WHICH MEETS STABILITY CRITERION OF THE DISPERSION TERM
 =  20.29    (WHEN MIN. R.F.=1)  AT K=   1, I=   1, J=  31
     1 CALLS TO GCG PACKAGE FOR TRANSPORT TIME STEP   4 IN FLOW TIME STEP 338 STRESS PERIOD   1
     5 TOTAL ITERATIONS
  MAXIMUM CONCENTRATION CHANGES FOR EACH ITERATION:
  MAX. CHANGE LAYER,ROW,COL MAX. CHANGE LAYER,ROW,COL MAX. CHANGE LAYER,ROW,COL MAX. CHANGE LAYER,ROW,COL MAX. CHANGE LAYER,ROW,COL
 ------------------------------------------------------------------------------------------------------------------------------------
   0.2031E-01 (  2,  1, 81)  0.5547E-03 (  2,  1, 79)  0.2022E-04 (  3,  1, 79)  0.9377E-06 (  3,  1, 76)  0.2639E-07 (  4,  1, 76)


                                          ================================================
                                                         FROM TIME =   3380.0     TO    3390.0    

 
 SOLVING FOR HEAD 
 FLOW MODEL IS TRANSIENT
 FLOW MODEL CONTAINS CONSTANT-HEAD CELLS


 MAXIMUM STEPSIZE DURING WHICH ANY PARTICLE CANNOT MOVE MORE THAN ONE CELL
 =  5.305    (WHEN MIN. R.F.=1)  AT K=   5, I=   1, J=  74

 MAXIMUM STEPSIZE WHICH MEETS STABILITY CRITERION OF THE ADVECTION TERM
 (FOR PURE FINITE-DIFFERENCE OPTION, MIXELM=0) 
 =  3.675    (WHEN MIN. R.F.=1)  AT K=   2, I=   1, J=  79


 TOTAL NUMBER OF POINT SOURCES/SINKS PRESENT IN THE FLOW MODEL =    62

 MAXIMUM STEPSIZE WHICH MEETS STABILITY CRITERION OF THE SINK & SOURCE TERM
 =  174.6    (WHEN MIN. R.F.=1)  AT K=   2, I=   1, J= 120

 MAXIMUM STEPSIZE WHICH MEETS STABILITY CRITERION OF THE DISPERSION TERM
 =  20.29    (WHEN MIN. R.F.=1)  AT K=   1, I=   1, J=  31


     1 CALLS TO GCG PACKAGE FOR TRANSPORT TIME STEP   1 IN FLOW TIME STEP 339 STRESS PERIOD   1
     6 TOTAL ITERATIONS

 NO OUTPUT CONTROL FOR STRESS PERIOD    1   TIME STEP 339
 
 SOLVING FOR HEAD 
 FLOW MODEL IS TRANSIENT
 FLOW MODEL CONTAINS CONSTANT-HEAD CELLS


 MAXIMUM STEPSIZE DURING WHICH ANY PARTICLE CANNOT MOVE MORE THAN ONE CELL
 =  5.438    (WHEN MIN. R.F.=1)  AT K=   6, I=   1, J=  74

 MAXIMUM STEPSIZE WHICH MEETS STABILITY CRITERION OF THE ADVECTION TERM
 (FOR PURE FINITE-DIFFERENCE OPTION, MIXELM=0) 
 =  3.564    (WHEN MIN. R.F.=1)  AT K=   2, I=   1, J=  79


 TOTAL NUMBER OF POINT SOURCES/SINKS PRESENT IN THE FLOW MODEL =    62

 MAXIMUM STEPSIZE WHICH MEETS STABILITY CRITERION OF THE SINK & SOURCE TERM
 =  175.3    (WHEN MIN. R.F.=1)  AT K=   2, I=   1, J= 120

 MAXIMUM STEPSIZE WHICH MEETS STABILITY CRITERION OF THE DISPERSION TERM
 =  20.29    (WHEN MIN. R.F.=1)  AT K=   1, I=   1, J=  31
     1 CALLS TO GCG PACKAGE FOR TRANSPORT TIME STEP   2 IN FLOW TIME STEP 339 STRESS PERIOD   1
     6 TOTAL ITERATIONS
 
 SOLVING FOR HEAD 
 FLOW MODEL IS TRANSIENT
 FLOW MODEL CONTAINS CONSTANT-HEAD CELLS


 MAXIMUM STEPSIZE DURING WHICH ANY PARTICLE CANNOT MOVE MORE THAN ONE CELL
 =  5.533    (WHEN MIN. R.F.=1)  AT K=   6, I=   1, J=  74

 MAXIMUM STEPSIZE WHICH MEETS STABILITY CRITERION OF THE ADVECTION TERM
 (FOR PURE FINITE-DIFFERENCE OPTION, MIXELM=0) 
 =  3.589    (WHEN MIN. R.F.=1)  AT K=   2, I=   1, J=  79


 TOTAL NUMBER OF POINT SOURCES/SINKS PRESENT IN THE FLOW MODEL =    62

 MAXIMUM STEPSIZE WHICH MEETS STABILITY CRITERION OF THE SINK & SOURCE TERM
 =  182.4    (WHEN MIN. R.F.=1)  AT K=   2, I=   1, J= 120

 MAXIMUM STEPSIZE WHICH MEETS STABILITY CRITERION OF THE DISPERSION TERM
 =  20.29    (WHEN MIN. R.F.=1)  AT K=   1, I=   1, J=  31
     1 CALLS TO GCG PACKAGE FOR TRANSPORT TIME STEP   3 IN FLOW TIME STEP 339 STRESS PERIOD   1
     6 TOTAL ITERATIONS
 
 SOLVING FOR HEAD 
 FLOW MODEL IS TRANSIENT
 FLOW MODEL CONTAINS CONSTANT-HEAD CELLS


 MAXIMUM STEPSIZE DURING WHICH ANY PARTICLE CANNOT MOVE MORE THAN ONE CELL
 =  5.639    (WHEN MIN. R.F.=1)  AT K=  28, I=   1, J=  54

 MAXIMUM STEPSIZE WHICH MEETS STABILITY CRITERION OF THE ADVECTION TERM
 (FOR PURE FINITE-DIFFERENCE OPTION, MIXELM=0) 
 =  3.762    (WHEN MIN. R.F.=1)  AT K=   2, I=   1, J=  79


 TOTAL NUMBER OF POINT SOURCES/SINKS PRESENT IN THE FLOW MODEL =    62

 MAXIMUM STEPSIZE WHICH MEETS STABILITY CRITERION OF THE SINK & SOURCE TERM
 =  188.0    (WHEN MIN. R.F.=1)  AT K=   2, I=   1, J= 120

 MAXIMUM STEPSIZE WHICH MEETS STABILITY CRITERION OF THE DISPERSION TERM
 =  20.29    (WHEN MIN. R.F.=1)  AT K=   1, I=   1, J=  31
     1 CALLS TO GCG PACKAGE FOR TRANSPORT TIME STEP   4 IN FLOW TIME STEP 339 STRESS PERIOD   1
     5 TOTAL ITERATIONS
  MAXIMUM CONCENTRATION CHANGES FOR EACH ITERATION:
  MAX. CHANGE LAYER,ROW,COL MAX. CHANGE LAYER,ROW,COL MAX. CHANGE LAYER,ROW,COL MAX. CHANGE LAYER,ROW,COL MAX. CHANGE LAYER,ROW,COL
 ------------------------------------------------------------------------------------------------------------------------------------
   0.2130E-01 (  2,  1, 80)  0.5676E-03 (  2,  1, 78)  0.2460E-04 (  3,  1, 78)  0.1095E-05 (  3,  1, 76)  0.3023E-07 (  4,  1, 76)


                                          ================================================
                                                         FROM TIME =   3390.0     TO    3400.0    

 
 SOLVING FOR HEAD 
 FLOW MODEL IS TRANSIENT
 FLOW MODEL CONTAINS CONSTANT-HEAD CELLS


 MAXIMUM STEPSIZE DURING WHICH ANY PARTICLE CANNOT MOVE MORE THAN ONE CELL
 =  5.642    (WHEN MIN. R.F.=1)  AT K=  28, I=   1, J=  54

 MAXIMUM STEPSIZE WHICH MEETS STABILITY CRITERION OF THE ADVECTION TERM
 (FOR PURE FINITE-DIFFERENCE OPTION, MIXELM=0) 
 =  3.954    (WHEN MIN. R.F.=1)  AT K=   2, I=   1, J=  44


 TOTAL NUMBER OF POINT SOURCES/SINKS PRESENT IN THE FLOW MODEL =    62

 MAXIMUM STEPSIZE WHICH MEETS STABILITY CRITERION OF THE SINK & SOURCE TERM
 =  198.0    (WHEN MIN. R.F.=1)  AT K=   2, I=   1, J= 120

 MAXIMUM STEPSIZE WHICH MEETS STABILITY CRITERION OF THE DISPERSION TERM
 =  20.29    (WHEN MIN. R.F.=1)  AT K=   1, I=   1, J=  31


     1 CALLS TO GCG PACKAGE FOR TRANSPORT TIME STEP   1 IN FLOW TIME STEP 340 STRESS PERIOD   1
     6 TOTAL ITERATIONS

 NO OUTPUT CONTROL FOR STRESS PERIOD    1   TIME STEP 340
 
 SOLVING FOR HEAD 
 FLOW MODEL IS TRANSIENT
 FLOW MODEL CONTAINS CONSTANT-HEAD CELLS


 MAXIMUM STEPSIZE DURING WHICH ANY PARTICLE CANNOT MOVE MORE THAN ONE CELL
 =  5.638    (WHEN MIN. R.F.=1)  AT K=  28, I=   1, J=  54

 MAXIMUM STEPSIZE WHICH MEETS STABILITY CRITERION OF THE ADVECTION TERM
 (FOR PURE FINITE-DIFFERENCE OPTION, MIXELM=0) 
 =  3.831    (WHEN MIN. R.F.=1)  AT K=   2, I=   1, J=  78


 TOTAL NUMBER OF POINT SOURCES/SINKS PRESENT IN THE FLOW MODEL =    62

 MAXIMUM STEPSIZE WHICH MEETS STABILITY CRITERION OF THE SINK & SOURCE TERM
 =  199.1    (WHEN MIN. R.F.=1)  AT K=   2, I=   1, J= 120

 MAXIMUM STEPSIZE WHICH MEETS STABILITY CRITERION OF THE DISPERSION TERM
 =  20.29    (WHEN MIN. R.F.=1)  AT K=   1, I=   1, J=  31
     1 CALLS TO GCG PACKAGE FOR TRANSPORT TIME STEP   2 IN FLOW TIME STEP 340 STRESS PERIOD   1
     6 TOTAL ITERATIONS
 
 SOLVING FOR HEAD 
 FLOW MODEL IS TRANSIENT
 FLOW MODEL CONTAINS CONSTANT-HEAD CELLS


 MAXIMUM STEPSIZE DURING WHICH ANY PARTICLE CANNOT MOVE MORE THAN ONE CELL
 =  5.631    (WHEN MIN. R.F.=1)  AT K=  28, I=   1, J=  54

 MAXIMUM STEPSIZE WHICH MEETS STABILITY CRITERION OF THE ADVECTION TERM
 (FOR PURE FINITE-DIFFERENCE OPTION, MIXELM=0) 
 =  3.670    (WHEN MIN. R.F.=1)  AT K=   2, I=   1, J=  78


 TOTAL NUMBER OF POINT SOURCES/SINKS PRESENT IN THE FLOW MODEL =    62

 MAXIMUM STEPSIZE WHICH MEETS STABILITY CRITERION OF THE SINK & SOURCE TERM
 =  205.6    (WHEN MIN. R.F.=1)  AT K=   2, I=   1, J= 120

 MAXIMUM STEPSIZE WHICH MEETS STABILITY CRITERION OF THE DISPERSION TERM
 =  20.29    (WHEN MIN. R.F.=1)  AT K=   1, I=   1, J=  31
     1 CALLS TO GCG PACKAGE FOR TRANSPORT TIME STEP   3 IN FLOW TIME STEP 340 STRESS PERIOD   1
     6 TOTAL ITERATIONS
 
 SOLVING FOR HEAD 
 FLOW MODEL IS TRANSIENT
 FLOW MODEL CONTAINS CONSTANT-HEAD CELLS


 MAXIMUM STEPSIZE DURING WHICH ANY PARTICLE CANNOT MOVE MORE THAN ONE CELL
 =  5.627    (WHEN MIN. R.F.=1)  AT K=  28, I=   1, J=  54

 MAXIMUM STEPSIZE WHICH MEETS STABILITY CRITERION OF THE ADVECTION TERM
 (FOR PURE FINITE-DIFFERENCE OPTION, MIXELM=0) 
 =  3.661    (WHEN MIN. R.F.=1)  AT K=   2, I=   1, J=  78


 TOTAL NUMBER OF POINT SOURCES/SINKS PRESENT IN THE FLOW MODEL =    62

 MAXIMUM STEPSIZE WHICH MEETS STABILITY CRITERION OF THE SINK & SOURCE TERM
 =  211.3    (WHEN MIN. R.F.=1)  AT K=   2, I=   1, J= 120

 MAXIMUM STEPSIZE WHICH MEETS STABILITY CRITERION OF THE DISPERSION TERM
 =  20.29    (WHEN MIN. R.F.=1)  AT K=   1, I=   1, J=  31
     1 CALLS TO GCG PACKAGE FOR TRANSPORT TIME STEP   4 IN FLOW TIME STEP 340 STRESS PERIOD   1
     5 TOTAL ITERATIONS
  MAXIMUM CONCENTRATION CHANGES FOR EACH ITERATION:
  MAX. CHANGE LAYER,ROW,COL MAX. CHANGE LAYER,ROW,COL MAX. CHANGE LAYER,ROW,COL MAX. CHANGE LAYER,ROW,COL MAX. CHANGE LAYER,ROW,COL
 ------------------------------------------------------------------------------------------------------------------------------------
   0.1598E-01 (  2,  1, 79)  0.3430E-03 (  2,  1, 79)  0.9402E-05 (  2,  1, 80)  0.2933E-06 (  3,  1, 80)  0.7382E-08 (  4,  1, 79)


                                          ================================================
                                                         FROM TIME =   3400.0     TO    3410.0    

 
 SOLVING FOR HEAD 
 FLOW MODEL IS TRANSIENT
 FLOW MODEL CONTAINS CONSTANT-HEAD CELLS


 MAXIMUM STEPSIZE DURING WHICH ANY PARTICLE CANNOT MOVE MORE THAN ONE CELL
 =  5.631    (WHEN MIN. R.F.=1)  AT K=  28, I=   1, J=  54

 MAXIMUM STEPSIZE WHICH MEETS STABILITY CRITERION OF THE ADVECTION TERM
 (FOR PURE FINITE-DIFFERENCE OPTION, MIXELM=0) 
 =  3.706    (WHEN MIN. R.F.=1)  AT K=   2, I=   1, J=  78


 TOTAL NUMBER OF POINT SOURCES/SINKS PRESENT IN THE FLOW MODEL =    62

 MAXIMUM STEPSIZE WHICH MEETS STABILITY CRITERION OF THE SINK & SOURCE TERM
 =  233.2    (WHEN MIN. R.F.=1)  AT K=   2, I=   1, J= 120

 MAXIMUM STEPSIZE WHICH MEETS STABILITY CRITERION OF THE DISPERSION TERM
 =  20.29    (WHEN MIN. R.F.=1)  AT K=   1, I=   1, J=  31


     1 CALLS TO GCG PACKAGE FOR TRANSPORT TIME STEP   1 IN FLOW TIME STEP 341 STRESS PERIOD   1
     6 TOTAL ITERATIONS

 NO OUTPUT CONTROL FOR STRESS PERIOD    1   TIME STEP 341
 
 SOLVING FOR HEAD 
 FLOW MODEL IS TRANSIENT
 FLOW MODEL CONTAINS CONSTANT-HEAD CELLS


 MAXIMUM STEPSIZE DURING WHICH ANY PARTICLE CANNOT MOVE MORE THAN ONE CELL
 =  5.629    (WHEN MIN. R.F.=1)  AT K=  28, I=   1, J=  54

 MAXIMUM STEPSIZE WHICH MEETS STABILITY CRITERION OF THE ADVECTION TERM
 (FOR PURE FINITE-DIFFERENCE OPTION, MIXELM=0) 
 =  3.887    (WHEN MIN. R.F.=1)  AT K=   2, I=   1, J=  78


 TOTAL NUMBER OF POINT SOURCES/SINKS PRESENT IN THE FLOW MODEL =    62

 MAXIMUM STEPSIZE WHICH MEETS STABILITY CRITERION OF THE SINK & SOURCE TERM
 =  232.9    (WHEN MIN. R.F.=1)  AT K=   2, I=   1, J= 120

 MAXIMUM STEPSIZE WHICH MEETS STABILITY CRITERION OF THE DISPERSION TERM
 =  20.29    (WHEN MIN. R.F.=1)  AT K=   1, I=   1, J=  31
     1 CALLS TO GCG PACKAGE FOR TRANSPORT TIME STEP   2 IN FLOW TIME STEP 341 STRESS PERIOD   1
     6 TOTAL ITERATIONS
 
 SOLVING FOR HEAD 
 FLOW MODEL IS TRANSIENT
 FLOW MODEL CONTAINS CONSTANT-HEAD CELLS


 MAXIMUM STEPSIZE DURING WHICH ANY PARTICLE CANNOT MOVE MORE THAN ONE CELL
 =  5.626    (WHEN MIN. R.F.=1)  AT K=  28, I=   1, J=  54

 MAXIMUM STEPSIZE WHICH MEETS STABILITY CRITERION OF THE ADVECTION TERM
 (FOR PURE FINITE-DIFFERENCE OPTION, MIXELM=0) 
 =  4.273    (WHEN MIN. R.F.=1)  AT K=   2, I=   1, J=  78


 TOTAL NUMBER OF POINT SOURCES/SINKS PRESENT IN THE FLOW MODEL =    62

 MAXIMUM STEPSIZE WHICH MEETS STABILITY CRITERION OF THE SINK & SOURCE TERM
 =  237.9    (WHEN MIN. R.F.=1)  AT K=   2, I=   1, J= 120

 MAXIMUM STEPSIZE WHICH MEETS STABILITY CRITERION OF THE DISPERSION TERM
 =  20.29    (WHEN MIN. R.F.=1)  AT K=   1, I=   1, J=  31
     1 CALLS TO GCG PACKAGE FOR TRANSPORT TIME STEP   3 IN FLOW TIME STEP 341 STRESS PERIOD   1
     6 TOTAL ITERATIONS
 
 SOLVING FOR HEAD 
 FLOW MODEL IS TRANSIENT
 FLOW MODEL CONTAINS CONSTANT-HEAD CELLS


 MAXIMUM STEPSIZE DURING WHICH ANY PARTICLE CANNOT MOVE MORE THAN ONE CELL
 =  5.623    (WHEN MIN. R.F.=1)  AT K=  28, I=   1, J=  54

 MAXIMUM STEPSIZE WHICH MEETS STABILITY CRITERION OF THE ADVECTION TERM
 (FOR PURE FINITE-DIFFERENCE OPTION, MIXELM=0) 
 =  3.967    (WHEN MIN. R.F.=1)  AT K=   2, I=   1, J=  77


 TOTAL NUMBER OF POINT SOURCES/SINKS PRESENT IN THE FLOW MODEL =    62

 MAXIMUM STEPSIZE WHICH MEETS STABILITY CRITERION OF THE SINK & SOURCE TERM
 =  240.5    (WHEN MIN. R.F.=1)  AT K=   2, I=   1, J= 120

 MAXIMUM STEPSIZE WHICH MEETS STABILITY CRITERION OF THE DISPERSION TERM
 =  20.29    (WHEN MIN. R.F.=1)  AT K=   1, I=   1, J=  31
     1 CALLS TO GCG PACKAGE FOR TRANSPORT TIME STEP   4 IN FLOW TIME STEP 341 STRESS PERIOD   1
     5 TOTAL ITERATIONS
  MAXIMUM CONCENTRATION CHANGES FOR EACH ITERATION:
  MAX. CHANGE LAYER,ROW,COL MAX. CHANGE LAYER,ROW,COL MAX. CHANGE LAYER,ROW,COL MAX. CHANGE LAYER,ROW,COL MAX. CHANGE LAYER,ROW,COL
 ------------------------------------------------------------------------------------------------------------------------------------
   0.1674E-01 (  2,  1, 31)  0.5121E-03 (  2,  1, 77)  0.1362E-04 (  3,  1, 77)  0.3702E-06 (  3,  1, 32)  0.1379E-07 (  5,  1, 80)


                                          ================================================
                                                         FROM TIME =   3410.0     TO    3420.0    

 
 SOLVING FOR HEAD 
 FLOW MODEL IS TRANSIENT
 FLOW MODEL CONTAINS CONSTANT-HEAD CELLS


 MAXIMUM STEPSIZE DURING WHICH ANY PARTICLE CANNOT MOVE MORE THAN ONE CELL
 =  5.627    (WHEN MIN. R.F.=1)  AT K=  28, I=   1, J=  54

 MAXIMUM STEPSIZE WHICH MEETS STABILITY CRITERION OF THE ADVECTION TERM
 (FOR PURE FINITE-DIFFERENCE OPTION, MIXELM=0) 
 =  3.887    (WHEN MIN. R.F.=1)  AT K=   2, I=   1, J=  77


 TOTAL NUMBER OF POINT SOURCES/SINKS PRESENT IN THE FLOW MODEL =    62

 MAXIMUM STEPSIZE WHICH MEETS STABILITY CRITERION OF THE SINK & SOURCE TERM
 =  258.2    (WHEN MIN. R.F.=1)  AT K=   2, I=   1, J= 120

 MAXIMUM STEPSIZE WHICH MEETS STABILITY CRITERION OF THE DISPERSION TERM
 =  20.29    (WHEN MIN. R.F.=1)  AT K=   1, I=   1, J=  31


     1 CALLS TO GCG PACKAGE FOR TRANSPORT TIME STEP   1 IN FLOW TIME STEP 342 STRESS PERIOD   1
     6 TOTAL ITERATIONS

 NO OUTPUT CONTROL FOR STRESS PERIOD    1   TIME STEP 342
 
 SOLVING FOR HEAD 
 FLOW MODEL IS TRANSIENT
 FLOW MODEL CONTAINS CONSTANT-HEAD CELLS


 MAXIMUM STEPSIZE DURING WHICH ANY PARTICLE CANNOT MOVE MORE THAN ONE CELL
 =  5.623    (WHEN MIN. R.F.=1)  AT K=  28, I=   1, J=  54

 MAXIMUM STEPSIZE WHICH MEETS STABILITY CRITERION OF THE ADVECTION TERM
 (FOR PURE FINITE-DIFFERENCE OPTION, MIXELM=0) 
 =  3.828    (WHEN MIN. R.F.=1)  AT K=   2, I=   1, J=  77


 TOTAL NUMBER OF POINT SOURCES/SINKS PRESENT IN THE FLOW MODEL =    62

 MAXIMUM STEPSIZE WHICH MEETS STABILITY CRITERION OF THE SINK & SOURCE TERM
 =  258.7    (WHEN MIN. R.F.=1)  AT K=   2, I=   1, J= 120

 MAXIMUM STEPSIZE WHICH MEETS STABILITY CRITERION OF THE DISPERSION TERM
 =  20.29    (WHEN MIN. R.F.=1)  AT K=   1, I=   1, J=  31
     1 CALLS TO GCG PACKAGE FOR TRANSPORT TIME STEP   2 IN FLOW TIME STEP 342 STRESS PERIOD   1
     6 TOTAL ITERATIONS
 
 SOLVING FOR HEAD 
 FLOW MODEL IS TRANSIENT
 FLOW MODEL CONTAINS CONSTANT-HEAD CELLS


 MAXIMUM STEPSIZE DURING WHICH ANY PARTICLE CANNOT MOVE MORE THAN ONE CELL
 =  5.620    (WHEN MIN. R.F.=1)  AT K=  28, I=   1, J=  54

 MAXIMUM STEPSIZE WHICH MEETS STABILITY CRITERION OF THE ADVECTION TERM
 (FOR PURE FINITE-DIFFERENCE OPTION, MIXELM=0) 
 =  3.880    (WHEN MIN. R.F.=1)  AT K=   2, I=   1, J=  77


 TOTAL NUMBER OF POINT SOURCES/SINKS PRESENT IN THE FLOW MODEL =    62

 MAXIMUM STEPSIZE WHICH MEETS STABILITY CRITERION OF THE SINK & SOURCE TERM
 =  269.1    (WHEN MIN. R.F.=1)  AT K=   2, I=   1, J= 120

 MAXIMUM STEPSIZE WHICH MEETS STABILITY CRITERION OF THE DISPERSION TERM
 =  20.29    (WHEN MIN. R.F.=1)  AT K=   1, I=   1, J=  31
     1 CALLS TO GCG PACKAGE FOR TRANSPORT TIME STEP   3 IN FLOW TIME STEP 342 STRESS PERIOD   1
     6 TOTAL ITERATIONS
 
 SOLVING FOR HEAD 
 FLOW MODEL IS TRANSIENT
 FLOW MODEL CONTAINS CONSTANT-HEAD CELLS


 MAXIMUM STEPSIZE DURING WHICH ANY PARTICLE CANNOT MOVE MORE THAN ONE CELL
 =  5.617    (WHEN MIN. R.F.=1)  AT K=  28, I=   1, J=  54

 MAXIMUM STEPSIZE WHICH MEETS STABILITY CRITERION OF THE ADVECTION TERM
 (FOR PURE FINITE-DIFFERENCE OPTION, MIXELM=0) 
 =  4.055    (WHEN MIN. R.F.=1)  AT K=   2, I=   1, J=  77


 TOTAL NUMBER OF POINT SOURCES/SINKS PRESENT IN THE FLOW MODEL =    62

 MAXIMUM STEPSIZE WHICH MEETS STABILITY CRITERION OF THE SINK & SOURCE TERM
 =  265.9    (WHEN MIN. R.F.=1)  AT K=   2, I=   1, J= 120

 MAXIMUM STEPSIZE WHICH MEETS STABILITY CRITERION OF THE DISPERSION TERM
 =  20.29    (WHEN MIN. R.F.=1)  AT K=   1, I=   1, J=  31
     1 CALLS TO GCG PACKAGE FOR TRANSPORT TIME STEP   4 IN FLOW TIME STEP 342 STRESS PERIOD   1
     5 TOTAL ITERATIONS
  MAXIMUM CONCENTRATION CHANGES FOR EACH ITERATION:
  MAX. CHANGE LAYER,ROW,COL MAX. CHANGE LAYER,ROW,COL MAX. CHANGE LAYER,ROW,COL MAX. CHANGE LAYER,ROW,COL MAX. CHANGE LAYER,ROW,COL
 ------------------------------------------------------------------------------------------------------------------------------------
   0.1552E-01 (  2,  1, 78)  0.2788E-03 (  2,  1, 75)  0.7625E-05 (  2,  1, 79)  0.2426E-06 (  3,  1, 79)  0.5063E-08 (  4,  1, 75)


                                          ================================================
                                                         FROM TIME =   3420.0     TO    3430.0    

 
 SOLVING FOR HEAD 
 FLOW MODEL IS TRANSIENT
 FLOW MODEL CONTAINS CONSTANT-HEAD CELLS


 MAXIMUM STEPSIZE DURING WHICH ANY PARTICLE CANNOT MOVE MORE THAN ONE CELL
 =  5.622    (WHEN MIN. R.F.=1)  AT K=  28, I=   1, J=  54

 MAXIMUM STEPSIZE WHICH MEETS STABILITY CRITERION OF THE ADVECTION TERM
 (FOR PURE FINITE-DIFFERENCE OPTION, MIXELM=0) 
 =  4.200    (WHEN MIN. R.F.=1)  AT K=   2, I=   1, J=  77


 TOTAL NUMBER OF POINT SOURCES/SINKS PRESENT IN THE FLOW MODEL =    62

 MAXIMUM STEPSIZE WHICH MEETS STABILITY CRITERION OF THE SINK & SOURCE TERM
 =  275.8    (WHEN MIN. R.F.=1)  AT K=   2, I=   1, J= 120

 MAXIMUM STEPSIZE WHICH MEETS STABILITY CRITERION OF THE DISPERSION TERM
 =  20.29    (WHEN MIN. R.F.=1)  AT K=   1, I=   1, J=  31


     1 CALLS TO GCG PACKAGE FOR TRANSPORT TIME STEP   1 IN FLOW TIME STEP 343 STRESS PERIOD   1
     6 TOTAL ITERATIONS

 NO OUTPUT CONTROL FOR STRESS PERIOD    1   TIME STEP 343
 
 SOLVING FOR HEAD 
 FLOW MODEL IS TRANSIENT
 FLOW MODEL CONTAINS CONSTANT-HEAD CELLS


 MAXIMUM STEPSIZE DURING WHICH ANY PARTICLE CANNOT MOVE MORE THAN ONE CELL
 =  5.619    (WHEN MIN. R.F.=1)  AT K=  28, I=   1, J=  54

 MAXIMUM STEPSIZE WHICH MEETS STABILITY CRITERION OF THE ADVECTION TERM
 (FOR PURE FINITE-DIFFERENCE OPTION, MIXELM=0) 
 =  4.370    (WHEN MIN. R.F.=1)  AT K=  30, I=   1, J=  29


 TOTAL NUMBER OF POINT SOURCES/SINKS PRESENT IN THE FLOW MODEL =    62

 MAXIMUM STEPSIZE WHICH MEETS STABILITY CRITERION OF THE SINK & SOURCE TERM
 =  265.5    (WHEN MIN. R.F.=1)  AT K=   2, I=   1, J= 120

 MAXIMUM STEPSIZE WHICH MEETS STABILITY CRITERION OF THE DISPERSION TERM
 =  20.29    (WHEN MIN. R.F.=1)  AT K=   1, I=   1, J=  31
     1 CALLS TO GCG PACKAGE FOR TRANSPORT TIME STEP   2 IN FLOW TIME STEP 343 STRESS PERIOD   1
     6 TOTAL ITERATIONS
 
 SOLVING FOR HEAD 
 FLOW MODEL IS TRANSIENT
 FLOW MODEL CONTAINS CONSTANT-HEAD CELLS


 MAXIMUM STEPSIZE DURING WHICH ANY PARTICLE CANNOT MOVE MORE THAN ONE CELL
 =  5.615    (WHEN MIN. R.F.=1)  AT K=  28, I=   1, J=  54

 MAXIMUM STEPSIZE WHICH MEETS STABILITY CRITERION OF THE ADVECTION TERM
 (FOR PURE FINITE-DIFFERENCE OPTION, MIXELM=0) 
 =  4.404    (WHEN MIN. R.F.=1)  AT K=   2, I=   1, J=  76


 TOTAL NUMBER OF POINT SOURCES/SINKS PRESENT IN THE FLOW MODEL =    62

 MAXIMUM STEPSIZE WHICH MEETS STABILITY CRITERION OF THE SINK & SOURCE TERM
 =  276.4    (WHEN MIN. R.F.=1)  AT K=   2, I=   1, J= 120

 MAXIMUM STEPSIZE WHICH MEETS STABILITY CRITERION OF THE DISPERSION TERM
 =  20.29    (WHEN MIN. R.F.=1)  AT K=   1, I=   1, J=  31
     1 CALLS TO GCG PACKAGE FOR TRANSPORT TIME STEP   3 IN FLOW TIME STEP 343 STRESS PERIOD   1
     6 TOTAL ITERATIONS
 
 SOLVING FOR HEAD 
 FLOW MODEL IS TRANSIENT
 FLOW MODEL CONTAINS CONSTANT-HEAD CELLS


 MAXIMUM STEPSIZE DURING WHICH ANY PARTICLE CANNOT MOVE MORE THAN ONE CELL
 =  5.611    (WHEN MIN. R.F.=1)  AT K=  28, I=   1, J=  54

 MAXIMUM STEPSIZE WHICH MEETS STABILITY CRITERION OF THE ADVECTION TERM
 (FOR PURE FINITE-DIFFERENCE OPTION, MIXELM=0) 
 =  4.189    (WHEN MIN. R.F.=1)  AT K=  30, I=   1, J=  28


 TOTAL NUMBER OF POINT SOURCES/SINKS PRESENT IN THE FLOW MODEL =    62

 MAXIMUM STEPSIZE WHICH MEETS STABILITY CRITERION OF THE SINK & SOURCE TERM
 =  274.2    (WHEN MIN. R.F.=1)  AT K=   2, I=   1, J= 120

 MAXIMUM STEPSIZE WHICH MEETS STABILITY CRITERION OF THE DISPERSION TERM
 =  20.29    (WHEN MIN. R.F.=1)  AT K=   1, I=   1, J=  31
     1 CALLS TO GCG PACKAGE FOR TRANSPORT TIME STEP   4 IN FLOW TIME STEP 343 STRESS PERIOD   1
     4 TOTAL ITERATIONS
  MAXIMUM CONCENTRATION CHANGES FOR EACH ITERATION:
  MAX. CHANGE LAYER,ROW,COL MAX. CHANGE LAYER,ROW,COL MAX. CHANGE LAYER,ROW,COL MAX. CHANGE LAYER,ROW,COL MAX. CHANGE LAYER,ROW,COL
 ------------------------------------------------------------------------------------------------------------------------------------
   0.6046E-02 (  2,  1, 38)  0.5304E-04 (  2,  1, 76)  0.5529E-06 (  2,  1, 78)  0.7177E-08 (  3,  1, 82)


                                          ================================================
                                                         FROM TIME =   3430.0     TO    3440.0    

 
 SOLVING FOR HEAD 
 FLOW MODEL IS TRANSIENT
 FLOW MODEL CONTAINS CONSTANT-HEAD CELLS


 MAXIMUM STEPSIZE DURING WHICH ANY PARTICLE CANNOT MOVE MORE THAN ONE CELL
 =  5.614    (WHEN MIN. R.F.=1)  AT K=  28, I=   1, J=  54

 MAXIMUM STEPSIZE WHICH MEETS STABILITY CRITERION OF THE ADVECTION TERM
 (FOR PURE FINITE-DIFFERENCE OPTION, MIXELM=0) 
 =  4.174    (WHEN MIN. R.F.=1)  AT K=  30, I=   1, J=  28


 TOTAL NUMBER OF POINT SOURCES/SINKS PRESENT IN THE FLOW MODEL =    62

 MAXIMUM STEPSIZE WHICH MEETS STABILITY CRITERION OF THE SINK & SOURCE TERM
 =  300.4    (WHEN MIN. R.F.=1)  AT K=   2, I=   1, J= 120

 MAXIMUM STEPSIZE WHICH MEETS STABILITY CRITERION OF THE DISPERSION TERM
 =  20.29    (WHEN MIN. R.F.=1)  AT K=   1, I=   1, J=  31


     1 CALLS TO GCG PACKAGE FOR TRANSPORT TIME STEP   1 IN FLOW TIME STEP 344 STRESS PERIOD   1
     6 TOTAL ITERATIONS

 NO OUTPUT CONTROL FOR STRESS PERIOD    1   TIME STEP 344
 
 SOLVING FOR HEAD 
 FLOW MODEL IS TRANSIENT
 FLOW MODEL CONTAINS CONSTANT-HEAD CELLS


 MAXIMUM STEPSIZE DURING WHICH ANY PARTICLE CANNOT MOVE MORE THAN ONE CELL
 =  5.613    (WHEN MIN. R.F.=1)  AT K=  28, I=   1, J=  54

 MAXIMUM STEPSIZE WHICH MEETS STABILITY CRITERION OF THE ADVECTION TERM
 (FOR PURE FINITE-DIFFERENCE OPTION, MIXELM=0) 
 =  4.113    (WHEN MIN. R.F.=1)  AT K=  30, I=   1, J=  28


 TOTAL NUMBER OF POINT SOURCES/SINKS PRESENT IN THE FLOW MODEL =    62

 MAXIMUM STEPSIZE WHICH MEETS STABILITY CRITERION OF THE SINK & SOURCE TERM
 =  286.0    (WHEN MIN. R.F.=1)  AT K=   2, I=   1, J= 120

 MAXIMUM STEPSIZE WHICH MEETS STABILITY CRITERION OF THE DISPERSION TERM
 =  20.29    (WHEN MIN. R.F.=1)  AT K=   1, I=   1, J=  31
     1 CALLS TO GCG PACKAGE FOR TRANSPORT TIME STEP   2 IN FLOW TIME STEP 344 STRESS PERIOD   1
     6 TOTAL ITERATIONS
 
 SOLVING FOR HEAD 
 FLOW MODEL IS TRANSIENT
 FLOW MODEL CONTAINS CONSTANT-HEAD CELLS


 MAXIMUM STEPSIZE DURING WHICH ANY PARTICLE CANNOT MOVE MORE THAN ONE CELL
 =  5.613    (WHEN MIN. R.F.=1)  AT K=  28, I=   1, J=  54

 MAXIMUM STEPSIZE WHICH MEETS STABILITY CRITERION OF THE ADVECTION TERM
 (FOR PURE FINITE-DIFFERENCE OPTION, MIXELM=0) 
 =  4.069    (WHEN MIN. R.F.=1)  AT K=   2, I=   1, J=  40


 TOTAL NUMBER OF POINT SOURCES/SINKS PRESENT IN THE FLOW MODEL =    62

 MAXIMUM STEPSIZE WHICH MEETS STABILITY CRITERION OF THE SINK & SOURCE TERM
 =  278.0    (WHEN MIN. R.F.=1)  AT K=   2, I=   1, J= 120

 MAXIMUM STEPSIZE WHICH MEETS STABILITY CRITERION OF THE DISPERSION TERM
 =  20.29    (WHEN MIN. R.F.=1)  AT K=   1, I=   1, J=  31
     1 CALLS TO GCG PACKAGE FOR TRANSPORT TIME STEP   3 IN FLOW TIME STEP 344 STRESS PERIOD   1
     6 TOTAL ITERATIONS
 
 SOLVING FOR HEAD 
 FLOW MODEL IS TRANSIENT
 FLOW MODEL CONTAINS CONSTANT-HEAD CELLS


 MAXIMUM STEPSIZE DURING WHICH ANY PARTICLE CANNOT MOVE MORE THAN ONE CELL
 =  5.614    (WHEN MIN. R.F.=1)  AT K=  28, I=   1, J=  54

 MAXIMUM STEPSIZE WHICH MEETS STABILITY CRITERION OF THE ADVECTION TERM
 (FOR PURE FINITE-DIFFERENCE OPTION, MIXELM=0) 
 =  4.131    (WHEN MIN. R.F.=1)  AT K=   2, I=   1, J=  40


 TOTAL NUMBER OF POINT SOURCES/SINKS PRESENT IN THE FLOW MODEL =    62

 MAXIMUM STEPSIZE WHICH MEETS STABILITY CRITERION OF THE SINK & SOURCE TERM
 =  272.9    (WHEN MIN. R.F.=1)  AT K=   2, I=   1, J= 120

 MAXIMUM STEPSIZE WHICH MEETS STABILITY CRITERION OF THE DISPERSION TERM
 =  20.29    (WHEN MIN. R.F.=1)  AT K=   1, I=   1, J=  31
     1 CALLS TO GCG PACKAGE FOR TRANSPORT TIME STEP   4 IN FLOW TIME STEP 344 STRESS PERIOD   1
     4 TOTAL ITERATIONS
  MAXIMUM CONCENTRATION CHANGES FOR EACH ITERATION:
  MAX. CHANGE LAYER,ROW,COL MAX. CHANGE LAYER,ROW,COL MAX. CHANGE LAYER,ROW,COL MAX. CHANGE LAYER,ROW,COL MAX. CHANGE LAYER,ROW,COL
 ------------------------------------------------------------------------------------------------------------------------------------
   0.7294E-02 (  2,  1, 39)  0.6506E-04 (  3,  1, 44)  0.8538E-06 (  2,  1, 38)  0.1381E-07 (  3,  1, 78)


                                          ================================================
                                                         FROM TIME =   3440.0     TO    3450.0    

 
 SOLVING FOR HEAD 
 FLOW MODEL IS TRANSIENT
 FLOW MODEL CONTAINS CONSTANT-HEAD CELLS


 MAXIMUM STEPSIZE DURING WHICH ANY PARTICLE CANNOT MOVE MORE THAN ONE CELL
 =  5.618    (WHEN MIN. R.F.=1)  AT K=  28, I=   1, J=  54

 MAXIMUM STEPSIZE WHICH MEETS STABILITY CRITERION OF THE ADVECTION TERM
 (FOR PURE FINITE-DIFFERENCE OPTION, MIXELM=0) 
 =  4.186    (WHEN MIN. R.F.=1)  AT K=   2, I=   1, J=  40


 TOTAL NUMBER OF POINT SOURCES/SINKS PRESENT IN THE FLOW MODEL =    62

 MAXIMUM STEPSIZE WHICH MEETS STABILITY CRITERION OF THE SINK & SOURCE TERM
 =  295.2    (WHEN MIN. R.F.=1)  AT K=   2, I=   1, J= 120

 MAXIMUM STEPSIZE WHICH MEETS STABILITY CRITERION OF THE DISPERSION TERM
 =  20.29    (WHEN MIN. R.F.=1)  AT K=   1, I=   1, J=  31


     1 CALLS TO GCG PACKAGE FOR TRANSPORT TIME STEP   1 IN FLOW TIME STEP 345 STRESS PERIOD   1
     6 TOTAL ITERATIONS

 NO OUTPUT CONTROL FOR STRESS PERIOD    1   TIME STEP 345
 
 SOLVING FOR HEAD 
 FLOW MODEL IS TRANSIENT
 FLOW MODEL CONTAINS CONSTANT-HEAD CELLS


 MAXIMUM STEPSIZE DURING WHICH ANY PARTICLE CANNOT MOVE MORE THAN ONE CELL
 =  5.513    (WHEN MIN. R.F.=1)  AT K=   4, I=   1, J=  47

 MAXIMUM STEPSIZE WHICH MEETS STABILITY CRITERION OF THE ADVECTION TERM
 (FOR PURE FINITE-DIFFERENCE OPTION, MIXELM=0) 
 =  4.115    (WHEN MIN. R.F.=1)  AT K=   2, I=   1, J=  41


 TOTAL NUMBER OF POINT SOURCES/SINKS PRESENT IN THE FLOW MODEL =    62

 MAXIMUM STEPSIZE WHICH MEETS STABILITY CRITERION OF THE SINK & SOURCE TERM
 =  282.4    (WHEN MIN. R.F.=1)  AT K=   2, I=   1, J= 120

 MAXIMUM STEPSIZE WHICH MEETS STABILITY CRITERION OF THE DISPERSION TERM
 =  20.29    (WHEN MIN. R.F.=1)  AT K=   1, I=   1, J=  31
     1 CALLS TO GCG PACKAGE FOR TRANSPORT TIME STEP   2 IN FLOW TIME STEP 345 STRESS PERIOD   1
     6 TOTAL ITERATIONS
 
 SOLVING FOR HEAD 
 FLOW MODEL IS TRANSIENT
 FLOW MODEL CONTAINS CONSTANT-HEAD CELLS


 MAXIMUM STEPSIZE DURING WHICH ANY PARTICLE CANNOT MOVE MORE THAN ONE CELL
 =  5.473    (WHEN MIN. R.F.=1)  AT K=   4, I=   1, J=  47

 MAXIMUM STEPSIZE WHICH MEETS STABILITY CRITERION OF THE ADVECTION TERM
 (FOR PURE FINITE-DIFFERENCE OPTION, MIXELM=0) 
 =  3.859    (WHEN MIN. R.F.=1)  AT K=   2, I=   1, J=  41


 TOTAL NUMBER OF POINT SOURCES/SINKS PRESENT IN THE FLOW MODEL =    62

 MAXIMUM STEPSIZE WHICH MEETS STABILITY CRITERION OF THE SINK & SOURCE TERM
 =  282.6    (WHEN MIN. R.F.=1)  AT K=   2, I=   1, J= 120

 MAXIMUM STEPSIZE WHICH MEETS STABILITY CRITERION OF THE DISPERSION TERM
 =  20.29    (WHEN MIN. R.F.=1)  AT K=   1, I=   1, J=  31
     1 CALLS TO GCG PACKAGE FOR TRANSPORT TIME STEP   3 IN FLOW TIME STEP 345 STRESS PERIOD   1
     6 TOTAL ITERATIONS
 
 SOLVING FOR HEAD 
 FLOW MODEL IS TRANSIENT
 FLOW MODEL CONTAINS CONSTANT-HEAD CELLS


 MAXIMUM STEPSIZE DURING WHICH ANY PARTICLE CANNOT MOVE MORE THAN ONE CELL
 =  5.560    (WHEN MIN. R.F.=1)  AT K=   4, I=   1, J=  47

 MAXIMUM STEPSIZE WHICH MEETS STABILITY CRITERION OF THE ADVECTION TERM
 (FOR PURE FINITE-DIFFERENCE OPTION, MIXELM=0) 
 =  3.808    (WHEN MIN. R.F.=1)  AT K=   2, I=   1, J=  41


 TOTAL NUMBER OF POINT SOURCES/SINKS PRESENT IN THE FLOW MODEL =    62

 MAXIMUM STEPSIZE WHICH MEETS STABILITY CRITERION OF THE SINK & SOURCE TERM
 =  279.7    (WHEN MIN. R.F.=1)  AT K=   2, I=   1, J= 120

 MAXIMUM STEPSIZE WHICH MEETS STABILITY CRITERION OF THE DISPERSION TERM
 =  20.29    (WHEN MIN. R.F.=1)  AT K=   1, I=   1, J=  31
     1 CALLS TO GCG PACKAGE FOR TRANSPORT TIME STEP   4 IN FLOW TIME STEP 345 STRESS PERIOD   1
     4 TOTAL ITERATIONS
  MAXIMUM CONCENTRATION CHANGES FOR EACH ITERATION:
  MAX. CHANGE LAYER,ROW,COL MAX. CHANGE LAYER,ROW,COL MAX. CHANGE LAYER,ROW,COL MAX. CHANGE LAYER,ROW,COL MAX. CHANGE LAYER,ROW,COL
 ------------------------------------------------------------------------------------------------------------------------------------
   0.7735E-02 (  2,  1, 83)  0.7626E-04 (  3,  1, 78)  0.1179E-05 (  3,  1, 42)  0.2118E-07 (  3,  1, 77)


                                          ================================================
                                                         FROM TIME =   3450.0     TO    3460.0    

 
 SOLVING FOR HEAD 
 FLOW MODEL IS TRANSIENT
 FLOW MODEL CONTAINS CONSTANT-HEAD CELLS


 MAXIMUM STEPSIZE DURING WHICH ANY PARTICLE CANNOT MOVE MORE THAN ONE CELL
 =  5.583    (WHEN MIN. R.F.=1)  AT K=   5, I=   1, J=  47

 MAXIMUM STEPSIZE WHICH MEETS STABILITY CRITERION OF THE ADVECTION TERM
 (FOR PURE FINITE-DIFFERENCE OPTION, MIXELM=0) 
 =  3.820    (WHEN MIN. R.F.=1)  AT K=   2, I=   1, J=  41


 TOTAL NUMBER OF POINT SOURCES/SINKS PRESENT IN THE FLOW MODEL =    62

 MAXIMUM STEPSIZE WHICH MEETS STABILITY CRITERION OF THE SINK & SOURCE TERM
 =  318.5    (WHEN MIN. R.F.=1)  AT K=   2, I=   1, J= 120

 MAXIMUM STEPSIZE WHICH MEETS STABILITY CRITERION OF THE DISPERSION TERM
 =  20.29    (WHEN MIN. R.F.=1)  AT K=   1, I=   1, J=  31


     1 CALLS TO GCG PACKAGE FOR TRANSPORT TIME STEP   1 IN FLOW TIME STEP 346 STRESS PERIOD   1
     6 TOTAL ITERATIONS

 NO OUTPUT CONTROL FOR STRESS PERIOD    1   TIME STEP 346
 
 SOLVING FOR HEAD 
 FLOW MODEL IS TRANSIENT
 FLOW MODEL CONTAINS CONSTANT-HEAD CELLS


 MAXIMUM STEPSIZE DURING WHICH ANY PARTICLE CANNOT MOVE MORE THAN ONE CELL
 =  5.478    (WHEN MIN. R.F.=1)  AT K=   4, I=   1, J=  74

 MAXIMUM STEPSIZE WHICH MEETS STABILITY CRITERION OF THE ADVECTION TERM
 (FOR PURE FINITE-DIFFERENCE OPTION, MIXELM=0) 
 =  3.974    (WHEN MIN. R.F.=1)  AT K=   2, I=   1, J=  41


 TOTAL NUMBER OF POINT SOURCES/SINKS PRESENT IN THE FLOW MODEL =    62

 MAXIMUM STEPSIZE WHICH MEETS STABILITY CRITERION OF THE SINK & SOURCE TERM
 =  304.7    (WHEN MIN. R.F.=1)  AT K=   2, I=   1, J= 120

 MAXIMUM STEPSIZE WHICH MEETS STABILITY CRITERION OF THE DISPERSION TERM
 =  20.29    (WHEN MIN. R.F.=1)  AT K=   1, I=   1, J=  31
     1 CALLS TO GCG PACKAGE FOR TRANSPORT TIME STEP   2 IN FLOW TIME STEP 346 STRESS PERIOD   1
     6 TOTAL ITERATIONS
 
 SOLVING FOR HEAD 
 FLOW MODEL IS TRANSIENT
 FLOW MODEL CONTAINS CONSTANT-HEAD CELLS


 MAXIMUM STEPSIZE DURING WHICH ANY PARTICLE CANNOT MOVE MORE THAN ONE CELL
 =  5.258    (WHEN MIN. R.F.=1)  AT K=   4, I=   1, J=  74

 MAXIMUM STEPSIZE WHICH MEETS STABILITY CRITERION OF THE ADVECTION TERM
 (FOR PURE FINITE-DIFFERENCE OPTION, MIXELM=0) 
 =  3.952    (WHEN MIN. R.F.=1)  AT K=   2, I=   1, J=  81


 TOTAL NUMBER OF POINT SOURCES/SINKS PRESENT IN THE FLOW MODEL =    62

 MAXIMUM STEPSIZE WHICH MEETS STABILITY CRITERION OF THE SINK & SOURCE TERM
 =  310.3    (WHEN MIN. R.F.=1)  AT K=   2, I=   1, J= 120

 MAXIMUM STEPSIZE WHICH MEETS STABILITY CRITERION OF THE DISPERSION TERM
 =  20.29    (WHEN MIN. R.F.=1)  AT K=   1, I=   1, J=  31
     1 CALLS TO GCG PACKAGE FOR TRANSPORT TIME STEP   3 IN FLOW TIME STEP 346 STRESS PERIOD   1
     6 TOTAL ITERATIONS
 
 SOLVING FOR HEAD 
 FLOW MODEL IS TRANSIENT
 FLOW MODEL CONTAINS CONSTANT-HEAD CELLS


 MAXIMUM STEPSIZE DURING WHICH ANY PARTICLE CANNOT MOVE MORE THAN ONE CELL
 =  5.104    (WHEN MIN. R.F.=1)  AT K=   4, I=   1, J=  74

 MAXIMUM STEPSIZE WHICH MEETS STABILITY CRITERION OF THE ADVECTION TERM
 (FOR PURE FINITE-DIFFERENCE OPTION, MIXELM=0) 
 =  3.777    (WHEN MIN. R.F.=1)  AT K=   2, I=   1, J=  42


 TOTAL NUMBER OF POINT SOURCES/SINKS PRESENT IN THE FLOW MODEL =    62

 MAXIMUM STEPSIZE WHICH MEETS STABILITY CRITERION OF THE SINK & SOURCE TERM
 =  306.5    (WHEN MIN. R.F.=1)  AT K=   2, I=   1, J= 120

 MAXIMUM STEPSIZE WHICH MEETS STABILITY CRITERION OF THE DISPERSION TERM
 =  20.29    (WHEN MIN. R.F.=1)  AT K=   1, I=   1, J=  31
     1 CALLS TO GCG PACKAGE FOR TRANSPORT TIME STEP   4 IN FLOW TIME STEP 346 STRESS PERIOD   1
     5 TOTAL ITERATIONS
  MAXIMUM CONCENTRATION CHANGES FOR EACH ITERATION:
  MAX. CHANGE LAYER,ROW,COL MAX. CHANGE LAYER,ROW,COL MAX. CHANGE LAYER,ROW,COL MAX. CHANGE LAYER,ROW,COL MAX. CHANGE LAYER,ROW,COL
 ------------------------------------------------------------------------------------------------------------------------------------
   0.1654E-01 (  2,  1, 82)  0.2792E-03 (  3,  1, 77)  0.8833E-05 (  3,  1, 80)  0.3834E-06 (  3,  1, 45)  0.9517E-08 (  4,  1, 45)


                                          ================================================
                                                         FROM TIME =   3460.0     TO    3470.0    

 
 SOLVING FOR HEAD 
 FLOW MODEL IS TRANSIENT
 FLOW MODEL CONTAINS CONSTANT-HEAD CELLS


 MAXIMUM STEPSIZE DURING WHICH ANY PARTICLE CANNOT MOVE MORE THAN ONE CELL
 =  5.060    (WHEN MIN. R.F.=1)  AT K=   4, I=   1, J=  74

 MAXIMUM STEPSIZE WHICH MEETS STABILITY CRITERION OF THE ADVECTION TERM
 (FOR PURE FINITE-DIFFERENCE OPTION, MIXELM=0) 
 =  3.747    (WHEN MIN. R.F.=1)  AT K=   2, I=   1, J=  42


 TOTAL NUMBER OF POINT SOURCES/SINKS PRESENT IN THE FLOW MODEL =    62

 MAXIMUM STEPSIZE WHICH MEETS STABILITY CRITERION OF THE SINK & SOURCE TERM
 =  319.4    (WHEN MIN. R.F.=1)  AT K=   2, I=   1, J= 120

 MAXIMUM STEPSIZE WHICH MEETS STABILITY CRITERION OF THE DISPERSION TERM
 =  20.29    (WHEN MIN. R.F.=1)  AT K=   1, I=   1, J=  31


     1 CALLS TO GCG PACKAGE FOR TRANSPORT TIME STEP   1 IN FLOW TIME STEP 347 STRESS PERIOD   1
     6 TOTAL ITERATIONS

 NO OUTPUT CONTROL FOR STRESS PERIOD    1   TIME STEP 347
 
 SOLVING FOR HEAD 
 FLOW MODEL IS TRANSIENT
 FLOW MODEL CONTAINS CONSTANT-HEAD CELLS


 MAXIMUM STEPSIZE DURING WHICH ANY PARTICLE CANNOT MOVE MORE THAN ONE CELL
 =  5.014    (WHEN MIN. R.F.=1)  AT K=   4, I=   1, J=  74

 MAXIMUM STEPSIZE WHICH MEETS STABILITY CRITERION OF THE ADVECTION TERM
 (FOR PURE FINITE-DIFFERENCE OPTION, MIXELM=0) 
 =  3.764    (WHEN MIN. R.F.=1)  AT K=   2, I=   1, J=  42


 TOTAL NUMBER OF POINT SOURCES/SINKS PRESENT IN THE FLOW MODEL =    62

 MAXIMUM STEPSIZE WHICH MEETS STABILITY CRITERION OF THE SINK & SOURCE TERM
 =  308.2    (WHEN MIN. R.F.=1)  AT K=   2, I=   1, J= 120

 MAXIMUM STEPSIZE WHICH MEETS STABILITY CRITERION OF THE DISPERSION TERM
 =  20.29    (WHEN MIN. R.F.=1)  AT K=   1, I=   1, J=  31
     1 CALLS TO GCG PACKAGE FOR TRANSPORT TIME STEP   2 IN FLOW TIME STEP 347 STRESS PERIOD   1
     6 TOTAL ITERATIONS
 
 SOLVING FOR HEAD 
 FLOW MODEL IS TRANSIENT
 FLOW MODEL CONTAINS CONSTANT-HEAD CELLS


 MAXIMUM STEPSIZE DURING WHICH ANY PARTICLE CANNOT MOVE MORE THAN ONE CELL
 =  5.022    (WHEN MIN. R.F.=1)  AT K=   4, I=   1, J=  74

 MAXIMUM STEPSIZE WHICH MEETS STABILITY CRITERION OF THE ADVECTION TERM
 (FOR PURE FINITE-DIFFERENCE OPTION, MIXELM=0) 
 =  3.666    (WHEN MIN. R.F.=1)  AT K=   2, I=   1, J=  80


 TOTAL NUMBER OF POINT SOURCES/SINKS PRESENT IN THE FLOW MODEL =    62

 MAXIMUM STEPSIZE WHICH MEETS STABILITY CRITERION OF THE SINK & SOURCE TERM
 =  326.4    (WHEN MIN. R.F.=1)  AT K=   2, I=   1, J= 120

 MAXIMUM STEPSIZE WHICH MEETS STABILITY CRITERION OF THE DISPERSION TERM
 =  20.29    (WHEN MIN. R.F.=1)  AT K=   1, I=   1, J=  31
     1 CALLS TO GCG PACKAGE FOR TRANSPORT TIME STEP   3 IN FLOW TIME STEP 347 STRESS PERIOD   1
     6 TOTAL ITERATIONS
 
 SOLVING FOR HEAD 
 FLOW MODEL IS TRANSIENT
 FLOW MODEL CONTAINS CONSTANT-HEAD CELLS


 MAXIMUM STEPSIZE DURING WHICH ANY PARTICLE CANNOT MOVE MORE THAN ONE CELL
 =  5.084    (WHEN MIN. R.F.=1)  AT K=   4, I=   1, J=  74

 MAXIMUM STEPSIZE WHICH MEETS STABILITY CRITERION OF THE ADVECTION TERM
 (FOR PURE FINITE-DIFFERENCE OPTION, MIXELM=0) 
 =  3.693    (WHEN MIN. R.F.=1)  AT K=   2, I=   1, J=  80


 TOTAL NUMBER OF POINT SOURCES/SINKS PRESENT IN THE FLOW MODEL =    62

 MAXIMUM STEPSIZE WHICH MEETS STABILITY CRITERION OF THE SINK & SOURCE TERM
 =  347.0    (WHEN MIN. R.F.=1)  AT K=   2, I=   1, J= 120

 MAXIMUM STEPSIZE WHICH MEETS STABILITY CRITERION OF THE DISPERSION TERM
 =  20.29    (WHEN MIN. R.F.=1)  AT K=   1, I=   1, J=  31
     1 CALLS TO GCG PACKAGE FOR TRANSPORT TIME STEP   4 IN FLOW TIME STEP 347 STRESS PERIOD   1
     5 TOTAL ITERATIONS
  MAXIMUM CONCENTRATION CHANGES FOR EACH ITERATION:
  MAX. CHANGE LAYER,ROW,COL MAX. CHANGE LAYER,ROW,COL MAX. CHANGE LAYER,ROW,COL MAX. CHANGE LAYER,ROW,COL MAX. CHANGE LAYER,ROW,COL
 ------------------------------------------------------------------------------------------------------------------------------------
   0.1940E-01 (  2,  1, 81)  0.3736E-03 (  2,  1, 81)  0.1907E-04 (  3,  1, 79)  0.5748E-06 (  4,  1, 79)  0.1637E-07 (  4,  1, 78)


                                          ================================================
                                                         FROM TIME =   3470.0     TO    3480.0    

 
 SOLVING FOR HEAD 
 FLOW MODEL IS TRANSIENT
 FLOW MODEL CONTAINS CONSTANT-HEAD CELLS


 MAXIMUM STEPSIZE DURING WHICH ANY PARTICLE CANNOT MOVE MORE THAN ONE CELL
 =  5.118    (WHEN MIN. R.F.=1)  AT K=   5, I=   1, J=  74

 MAXIMUM STEPSIZE WHICH MEETS STABILITY CRITERION OF THE ADVECTION TERM
 (FOR PURE FINITE-DIFFERENCE OPTION, MIXELM=0) 
 =  3.814    (WHEN MIN. R.F.=1)  AT K=   2, I=   1, J=  80


 TOTAL NUMBER OF POINT SOURCES/SINKS PRESENT IN THE FLOW MODEL =    62

 MAXIMUM STEPSIZE WHICH MEETS STABILITY CRITERION OF THE SINK & SOURCE TERM
 =  389.3    (WHEN MIN. R.F.=1)  AT K=   2, I=   1, J= 120

 MAXIMUM STEPSIZE WHICH MEETS STABILITY CRITERION OF THE DISPERSION TERM
 =  20.29    (WHEN MIN. R.F.=1)  AT K=   1, I=   1, J=  31


     1 CALLS TO GCG PACKAGE FOR TRANSPORT TIME STEP   1 IN FLOW TIME STEP 348 STRESS PERIOD   1
     6 TOTAL ITERATIONS

 NO OUTPUT CONTROL FOR STRESS PERIOD    1   TIME STEP 348
 
 SOLVING FOR HEAD 
 FLOW MODEL IS TRANSIENT
 FLOW MODEL CONTAINS CONSTANT-HEAD CELLS


 MAXIMUM STEPSIZE DURING WHICH ANY PARTICLE CANNOT MOVE MORE THAN ONE CELL
 =  5.182    (WHEN MIN. R.F.=1)  AT K=   5, I=   1, J=  74

 MAXIMUM STEPSIZE WHICH MEETS STABILITY CRITERION OF THE ADVECTION TERM
 (FOR PURE FINITE-DIFFERENCE OPTION, MIXELM=0) 
 =  3.809    (WHEN MIN. R.F.=1)  AT K=   2, I=   1, J=  43


 TOTAL NUMBER OF POINT SOURCES/SINKS PRESENT IN THE FLOW MODEL =    62

 MAXIMUM STEPSIZE WHICH MEETS STABILITY CRITERION OF THE SINK & SOURCE TERM
 =  379.0    (WHEN MIN. R.F.=1)  AT K=   2, I=   1, J= 120

 MAXIMUM STEPSIZE WHICH MEETS STABILITY CRITERION OF THE DISPERSION TERM
 =  20.29    (WHEN MIN. R.F.=1)  AT K=   1, I=   1, J=  31
     1 CALLS TO GCG PACKAGE FOR TRANSPORT TIME STEP   2 IN FLOW TIME STEP 348 STRESS PERIOD   1
     6 TOTAL ITERATIONS
 
 SOLVING FOR HEAD 
 FLOW MODEL IS TRANSIENT
 FLOW MODEL CONTAINS CONSTANT-HEAD CELLS


 MAXIMUM STEPSIZE DURING WHICH ANY PARTICLE CANNOT MOVE MORE THAN ONE CELL
 =  5.284    (WHEN MIN. R.F.=1)  AT K=   5, I=   1, J=  74

 MAXIMUM STEPSIZE WHICH MEETS STABILITY CRITERION OF THE ADVECTION TERM
 (FOR PURE FINITE-DIFFERENCE OPTION, MIXELM=0) 
 =  3.644    (WHEN MIN. R.F.=1)  AT K=   2, I=   1, J=  79


 TOTAL NUMBER OF POINT SOURCES/SINKS PRESENT IN THE FLOW MODEL =    62

 MAXIMUM STEPSIZE WHICH MEETS STABILITY CRITERION OF THE SINK & SOURCE TERM
 =  403.3    (WHEN MIN. R.F.=1)  AT K=   2, I=   1, J= 120

 MAXIMUM STEPSIZE WHICH MEETS STABILITY CRITERION OF THE DISPERSION TERM
 =  20.29    (WHEN MIN. R.F.=1)  AT K=   1, I=   1, J=  31
     1 CALLS TO GCG PACKAGE FOR TRANSPORT TIME STEP   3 IN FLOW TIME STEP 348 STRESS PERIOD   1
     6 TOTAL ITERATIONS
 
 SOLVING FOR HEAD 
 FLOW MODEL IS TRANSIENT
 FLOW MODEL CONTAINS CONSTANT-HEAD CELLS


 MAXIMUM STEPSIZE DURING WHICH ANY PARTICLE CANNOT MOVE MORE THAN ONE CELL
 =  5.420    (WHEN MIN. R.F.=1)  AT K=   6, I=   1, J=  74

 MAXIMUM STEPSIZE WHICH MEETS STABILITY CRITERION OF THE ADVECTION TERM
 (FOR PURE FINITE-DIFFERENCE OPTION, MIXELM=0) 
 =  3.574    (WHEN MIN. R.F.=1)  AT K=   2, I=   1, J=  79


 TOTAL NUMBER OF POINT SOURCES/SINKS PRESENT IN THE FLOW MODEL =    62

 MAXIMUM STEPSIZE WHICH MEETS STABILITY CRITERION OF THE SINK & SOURCE TERM
 =  425.5    (WHEN MIN. R.F.=1)  AT K=   2, I=   1, J= 120

 MAXIMUM STEPSIZE WHICH MEETS STABILITY CRITERION OF THE DISPERSION TERM
 =  20.29    (WHEN MIN. R.F.=1)  AT K=   1, I=   1, J=  31
     1 CALLS TO GCG PACKAGE FOR TRANSPORT TIME STEP   4 IN FLOW TIME STEP 348 STRESS PERIOD   1
     5 TOTAL ITERATIONS
  MAXIMUM CONCENTRATION CHANGES FOR EACH ITERATION:
  MAX. CHANGE LAYER,ROW,COL MAX. CHANGE LAYER,ROW,COL MAX. CHANGE LAYER,ROW,COL MAX. CHANGE LAYER,ROW,COL MAX. CHANGE LAYER,ROW,COL
 ------------------------------------------------------------------------------------------------------------------------------------
   0.1799E-01 (  2,  1, 80)  0.4225E-03 (  2,  1, 80)  0.1402E-04 (  2,  1, 76)  0.7726E-06 (  3,  1, 76)  0.2188E-07 (  4,  1, 76)


                                          ================================================
                                                         FROM TIME =   3480.0     TO    3490.0    

 
 SOLVING FOR HEAD 
 FLOW MODEL IS TRANSIENT
 FLOW MODEL CONTAINS CONSTANT-HEAD CELLS


 MAXIMUM STEPSIZE DURING WHICH ANY PARTICLE CANNOT MOVE MORE THAN ONE CELL
 =  5.472    (WHEN MIN. R.F.=1)  AT K=   6, I=   1, J=  74

 MAXIMUM STEPSIZE WHICH MEETS STABILITY CRITERION OF THE ADVECTION TERM
 (FOR PURE FINITE-DIFFERENCE OPTION, MIXELM=0) 
 =  3.602    (WHEN MIN. R.F.=1)  AT K=   2, I=   1, J=  79


 TOTAL NUMBER OF POINT SOURCES/SINKS PRESENT IN THE FLOW MODEL =    62

 MAXIMUM STEPSIZE WHICH MEETS STABILITY CRITERION OF THE SINK & SOURCE TERM
 =  492.6    (WHEN MIN. R.F.=1)  AT K=   2, I=   1, J= 120

 MAXIMUM STEPSIZE WHICH MEETS STABILITY CRITERION OF THE DISPERSION TERM
 =  20.29    (WHEN MIN. R.F.=1)  AT K=   1, I=   1, J=  31


     1 CALLS TO GCG PACKAGE FOR TRANSPORT TIME STEP   1 IN FLOW TIME STEP 349 STRESS PERIOD   1
     6 TOTAL ITERATIONS

 NO OUTPUT CONTROL FOR STRESS PERIOD    1   TIME STEP 349
 
 SOLVING FOR HEAD 
 FLOW MODEL IS TRANSIENT
 FLOW MODEL CONTAINS CONSTANT-HEAD CELLS


 MAXIMUM STEPSIZE DURING WHICH ANY PARTICLE CANNOT MOVE MORE THAN ONE CELL
 =  5.589    (WHEN MIN. R.F.=1)  AT K=   6, I=   1, J=  74

 MAXIMUM STEPSIZE WHICH MEETS STABILITY CRITERION OF THE ADVECTION TERM
 (FOR PURE FINITE-DIFFERENCE OPTION, MIXELM=0) 
 =  3.744    (WHEN MIN. R.F.=1)  AT K=   2, I=   1, J=  79


 TOTAL NUMBER OF POINT SOURCES/SINKS PRESENT IN THE FLOW MODEL =    62

 MAXIMUM STEPSIZE WHICH MEETS STABILITY CRITERION OF THE SINK & SOURCE TERM
 =  504.6    (WHEN MIN. R.F.=1)  AT K=   2, I=   1, J= 120

 MAXIMUM STEPSIZE WHICH MEETS STABILITY CRITERION OF THE DISPERSION TERM
 =  20.29    (WHEN MIN. R.F.=1)  AT K=   1, I=   1, J=  31
     1 CALLS TO GCG PACKAGE FOR TRANSPORT TIME STEP   2 IN FLOW TIME STEP 349 STRESS PERIOD   1
     6 TOTAL ITERATIONS
 
 SOLVING FOR HEAD 
 FLOW MODEL IS TRANSIENT
 FLOW MODEL CONTAINS CONSTANT-HEAD CELLS


 MAXIMUM STEPSIZE DURING WHICH ANY PARTICLE CANNOT MOVE MORE THAN ONE CELL
 =  5.658    (WHEN MIN. R.F.=1)  AT K=  28, I=   1, J=  54

 MAXIMUM STEPSIZE WHICH MEETS STABILITY CRITERION OF THE ADVECTION TERM
 (FOR PURE FINITE-DIFFERENCE OPTION, MIXELM=0) 
 =  4.057    (WHEN MIN. R.F.=1)  AT K=   2, I=   1, J=  78


 TOTAL NUMBER OF POINT SOURCES/SINKS PRESENT IN THE FLOW MODEL =    62

 MAXIMUM STEPSIZE WHICH MEETS STABILITY CRITERION OF THE SINK & SOURCE TERM
 =  529.8    (WHEN MIN. R.F.=1)  AT K=   2, I=   1, J= 120

 MAXIMUM STEPSIZE WHICH MEETS STABILITY CRITERION OF THE DISPERSION TERM
 =  20.29    (WHEN MIN. R.F.=1)  AT K=   1, I=   1, J=  31
     1 CALLS TO GCG PACKAGE FOR TRANSPORT TIME STEP   3 IN FLOW TIME STEP 349 STRESS PERIOD   1
     6 TOTAL ITERATIONS
 
 SOLVING FOR HEAD 
 FLOW MODEL IS TRANSIENT
 FLOW MODEL CONTAINS CONSTANT-HEAD CELLS


 MAXIMUM STEPSIZE DURING WHICH ANY PARTICLE CANNOT MOVE MORE THAN ONE CELL
 =  5.659    (WHEN MIN. R.F.=1)  AT K=  28, I=   1, J=  54

 MAXIMUM STEPSIZE WHICH MEETS STABILITY CRITERION OF THE ADVECTION TERM
 (FOR PURE FINITE-DIFFERENCE OPTION, MIXELM=0) 
 =  3.779    (WHEN MIN. R.F.=1)  AT K=   2, I=   1, J=  78


 TOTAL NUMBER OF POINT SOURCES/SINKS PRESENT IN THE FLOW MODEL =    62

 MAXIMUM STEPSIZE WHICH MEETS STABILITY CRITERION OF THE SINK & SOURCE TERM
 =  549.3    (WHEN MIN. R.F.=1)  AT K=   2, I=   1, J= 120

 MAXIMUM STEPSIZE WHICH MEETS STABILITY CRITERION OF THE DISPERSION TERM
 =  20.29    (WHEN MIN. R.F.=1)  AT K=   1, I=   1, J=  31
     1 CALLS TO GCG PACKAGE FOR TRANSPORT TIME STEP   4 IN FLOW TIME STEP 349 STRESS PERIOD   1
     5 TOTAL ITERATIONS
  MAXIMUM CONCENTRATION CHANGES FOR EACH ITERATION:
  MAX. CHANGE LAYER,ROW,COL MAX. CHANGE LAYER,ROW,COL MAX. CHANGE LAYER,ROW,COL MAX. CHANGE LAYER,ROW,COL MAX. CHANGE LAYER,ROW,COL
 ------------------------------------------------------------------------------------------------------------------------------------
   0.1929E-01 (  2,  1, 80)  0.5998E-03 (  2,  1, 78)  0.2178E-04 (  3,  1, 46)  0.6176E-06 (  3,  1, 63)  0.2704E-07 (  3,  1, 33)


                                          ================================================
                                                         FROM TIME =   3490.0     TO    3500.0    

 
 SOLVING FOR HEAD 
 FLOW MODEL IS TRANSIENT
 FLOW MODEL CONTAINS CONSTANT-HEAD CELLS


 MAXIMUM STEPSIZE DURING WHICH ANY PARTICLE CANNOT MOVE MORE THAN ONE CELL
 =  5.664    (WHEN MIN. R.F.=1)  AT K=  28, I=   1, J=  54

 MAXIMUM STEPSIZE WHICH MEETS STABILITY CRITERION OF THE ADVECTION TERM
 (FOR PURE FINITE-DIFFERENCE OPTION, MIXELM=0) 
 =  3.694    (WHEN MIN. R.F.=1)  AT K=   2, I=   1, J=  78


 TOTAL NUMBER OF POINT SOURCES/SINKS PRESENT IN THE FLOW MODEL =    62

 MAXIMUM STEPSIZE WHICH MEETS STABILITY CRITERION OF THE SINK & SOURCE TERM
 =  603.6    (WHEN MIN. R.F.=1)  AT K=   2, I=   1, J= 120

 MAXIMUM STEPSIZE WHICH MEETS STABILITY CRITERION OF THE DISPERSION TERM
 =  20.29    (WHEN MIN. R.F.=1)  AT K=   1, I=   1, J=  31


     1 CALLS TO GCG PACKAGE FOR TRANSPORT TIME STEP   1 IN FLOW TIME STEP 350 STRESS PERIOD   1
     5 TOTAL ITERATIONS

 NO OUTPUT CONTROL FOR STRESS PERIOD    1   TIME STEP 350



 >>>>>>>>>>>>>>>>>>>>>>>>>>>>>>>>>>>>>>>>>>>>>>>>>>>>>>>FOR COMPONENT NO. 01<<<<<<<<<<<<<<<<<<<<<<<<<<<<<<<<<<<<<<<<<<<<<<<<<<<<<<<


                                            -------------------------------------------
                                                      TRANSPORT STEP NO.    1
                                            -------------------------------------------

 TOTAL ELAPSED TIME SINCE BEGINNING OF SIMULATION =   3491.400    D   
 .....................................................................

                     CUMULATIVE MASS BUDGETS AT END OF TRANSPORT STEP    1, TIME STEP  350, STRESS PERIOD    1
                     ------------------------------------------------------------------------------------------

                                                             IN                           OUT
                                                      ----------------             ----------------
                               CONSTANT CONCENTRATION:    2229333.                   -1311314.    
                                        CONSTANT HEAD:    0.000000                   -162.4899    
                               MASS STOR (FLOW MODEL):    240.0786                   -430.6756    
                                MASS STORAGE (SOLUTE):    3570686.                   -4488352.    
                            ---------------------------------------------------------------------------
                                              [TOTAL]:    5800258.     KG            -5800258.     KG  

                                                          NET (IN - OUT):  -0.3394296E-02
                                                   DISCREPANCY (PERCENT):  -0.5851974E-07
 
 SOLVING FOR HEAD 
 FLOW MODEL IS TRANSIENT
 FLOW MODEL CONTAINS CONSTANT-HEAD CELLS


 MAXIMUM STEPSIZE DURING WHICH ANY PARTICLE CANNOT MOVE MORE THAN ONE CELL
 =  5.670    (WHEN MIN. R.F.=1)  AT K=  28, I=   1, J=  54

 MAXIMUM STEPSIZE WHICH MEETS STABILITY CRITERION OF THE ADVECTION TERM
 (FOR PURE FINITE-DIFFERENCE OPTION, MIXELM=0) 
 =  3.671    (WHEN MIN. R.F.=1)  AT K=   2, I=   1, J=  78


 TOTAL NUMBER OF POINT SOURCES/SINKS PRESENT IN THE FLOW MODEL =    62

 MAXIMUM STEPSIZE WHICH MEETS STABILITY CRITERION OF THE SINK & SOURCE TERM
 =  679.1    (WHEN MIN. R.F.=1)  AT K=   2, I=   1, J= 120

 MAXIMUM STEPSIZE WHICH MEETS STABILITY CRITERION OF THE DISPERSION TERM
 =  20.29    (WHEN MIN. R.F.=1)  AT K=   1, I=   1, J=  31
     1 CALLS TO GCG PACKAGE FOR TRANSPORT TIME STEP   2 IN FLOW TIME STEP 350 STRESS PERIOD   1
     6 TOTAL ITERATIONS
 
 SOLVING FOR HEAD 
 FLOW MODEL IS TRANSIENT
 FLOW MODEL CONTAINS CONSTANT-HEAD CELLS


 MAXIMUM STEPSIZE DURING WHICH ANY PARTICLE CANNOT MOVE MORE THAN ONE CELL
 =  5.672    (WHEN MIN. R.F.=1)  AT K=  28, I=   1, J=  54

 MAXIMUM STEPSIZE WHICH MEETS STABILITY CRITERION OF THE ADVECTION TERM
 (FOR PURE FINITE-DIFFERENCE OPTION, MIXELM=0) 
 =  3.696    (WHEN MIN. R.F.=1)  AT K=   2, I=   1, J=  78


 TOTAL NUMBER OF POINT SOURCES/SINKS PRESENT IN THE FLOW MODEL =    62

 MAXIMUM STEPSIZE WHICH MEETS STABILITY CRITERION OF THE SINK & SOURCE TERM
 =  725.4    (WHEN MIN. R.F.=1)  AT K=   2, I=   1, J= 120

 MAXIMUM STEPSIZE WHICH MEETS STABILITY CRITERION OF THE DISPERSION TERM
 =  20.29    (WHEN MIN. R.F.=1)  AT K=   1, I=   1, J=  31
     1 CALLS TO GCG PACKAGE FOR TRANSPORT TIME STEP   3 IN FLOW TIME STEP 350 STRESS PERIOD   1
     6 TOTAL ITERATIONS
 
 SOLVING FOR HEAD 
 FLOW MODEL IS TRANSIENT
 FLOW MODEL CONTAINS CONSTANT-HEAD CELLS


 MAXIMUM STEPSIZE DURING WHICH ANY PARTICLE CANNOT MOVE MORE THAN ONE CELL
 =  5.673    (WHEN MIN. R.F.=1)  AT K=  28, I=   1, J=  54

 MAXIMUM STEPSIZE WHICH MEETS STABILITY CRITERION OF THE ADVECTION TERM
 (FOR PURE FINITE-DIFFERENCE OPTION, MIXELM=0) 
 =  3.847    (WHEN MIN. R.F.=1)  AT K=   2, I=   1, J=  78


 TOTAL NUMBER OF POINT SOURCES/SINKS PRESENT IN THE FLOW MODEL =    62

 MAXIMUM STEPSIZE WHICH MEETS STABILITY CRITERION OF THE SINK & SOURCE TERM
 =  841.5    (WHEN MIN. R.F.=1)  AT K=   2, I=   1, J= 120

 MAXIMUM STEPSIZE WHICH MEETS STABILITY CRITERION OF THE DISPERSION TERM
 =  20.29    (WHEN MIN. R.F.=1)  AT K=   1, I=   1, J=  31
     1 CALLS TO GCG PACKAGE FOR TRANSPORT TIME STEP   4 IN FLOW TIME STEP 350 STRESS PERIOD   1
     6 TOTAL ITERATIONS
 
 SOLVING FOR HEAD 
 FLOW MODEL IS TRANSIENT
 FLOW MODEL CONTAINS CONSTANT-HEAD CELLS


 MAXIMUM STEPSIZE DURING WHICH ANY PARTICLE CANNOT MOVE MORE THAN ONE CELL
 =  5.673    (WHEN MIN. R.F.=1)  AT K=  28, I=   1, J=  54

 MAXIMUM STEPSIZE WHICH MEETS STABILITY CRITERION OF THE ADVECTION TERM
 (FOR PURE FINITE-DIFFERENCE OPTION, MIXELM=0) 
 =  4.186    (WHEN MIN. R.F.=1)  AT K=   2, I=   1, J=  78


 TOTAL NUMBER OF POINT SOURCES/SINKS PRESENT IN THE FLOW MODEL =    62

 MAXIMUM STEPSIZE WHICH MEETS STABILITY CRITERION OF THE SINK & SOURCE TERM
 =  861.0    (WHEN MIN. R.F.=1)  AT K=   2, I=   1, J= 120

 MAXIMUM STEPSIZE WHICH MEETS STABILITY CRITERION OF THE DISPERSION TERM
 =  20.29    (WHEN MIN. R.F.=1)  AT K=   1, I=   1, J=  31
     1 CALLS TO GCG PACKAGE FOR TRANSPORT TIME STEP   5 IN FLOW TIME STEP 350 STRESS PERIOD   1
     4 TOTAL ITERATIONS
  MAXIMUM CONCENTRATION CHANGES FOR EACH ITERATION:
  MAX. CHANGE LAYER,ROW,COL MAX. CHANGE LAYER,ROW,COL MAX. CHANGE LAYER,ROW,COL MAX. CHANGE LAYER,ROW,COL MAX. CHANGE LAYER,ROW,COL
 ------------------------------------------------------------------------------------------------------------------------------------
   0.3659E-02 (  2,  1, 79)  0.1940E-04 (  2,  1, 77)  0.1300E-06 (  3,  1, 77)  0.7856E-09 (  3,  1, 42)


                                          ================================================
                                                         FROM TIME =   3500.0     TO    3510.0    

 
 SOLVING FOR HEAD 
 FLOW MODEL IS TRANSIENT
 FLOW MODEL CONTAINS CONSTANT-HEAD CELLS


 MAXIMUM STEPSIZE DURING WHICH ANY PARTICLE CANNOT MOVE MORE THAN ONE CELL
 =  5.675    (WHEN MIN. R.F.=1)  AT K=  28, I=   1, J=  54

 MAXIMUM STEPSIZE WHICH MEETS STABILITY CRITERION OF THE ADVECTION TERM
 (FOR PURE FINITE-DIFFERENCE OPTION, MIXELM=0) 
 =  4.233    (WHEN MIN. R.F.=1)  AT K=   2, I=   1, J=  78


 TOTAL NUMBER OF POINT SOURCES/SINKS PRESENT IN THE FLOW MODEL =    62

 MAXIMUM STEPSIZE WHICH MEETS STABILITY CRITERION OF THE SINK & SOURCE TERM
 =  999.7    (WHEN MIN. R.F.=1)  AT K=   2, I=   1, J= 120

 MAXIMUM STEPSIZE WHICH MEETS STABILITY CRITERION OF THE DISPERSION TERM
 =  20.29    (WHEN MIN. R.F.=1)  AT K=   1, I=   1, J=  31


     1 CALLS TO GCG PACKAGE FOR TRANSPORT TIME STEP   1 IN FLOW TIME STEP 351 STRESS PERIOD   1
     6 TOTAL ITERATIONS

 NO OUTPUT CONTROL FOR STRESS PERIOD    1   TIME STEP 351
 
 SOLVING FOR HEAD 
 FLOW MODEL IS TRANSIENT
 FLOW MODEL CONTAINS CONSTANT-HEAD CELLS


 MAXIMUM STEPSIZE DURING WHICH ANY PARTICLE CANNOT MOVE MORE THAN ONE CELL
 =  5.674    (WHEN MIN. R.F.=1)  AT K=  28, I=   1, J=  54

 MAXIMUM STEPSIZE WHICH MEETS STABILITY CRITERION OF THE ADVECTION TERM
 (FOR PURE FINITE-DIFFERENCE OPTION, MIXELM=0) 
 =  3.985    (WHEN MIN. R.F.=1)  AT K=   2, I=   1, J=  77


 TOTAL NUMBER OF POINT SOURCES/SINKS PRESENT IN THE FLOW MODEL =    62

 MAXIMUM STEPSIZE WHICH MEETS STABILITY CRITERION OF THE SINK & SOURCE TERM
 =  934.6    (WHEN MIN. R.F.=1)  AT K=   2, I=   1, J= 120

 MAXIMUM STEPSIZE WHICH MEETS STABILITY CRITERION OF THE DISPERSION TERM
 =  20.29    (WHEN MIN. R.F.=1)  AT K=   1, I=   1, J=  31
     1 CALLS TO GCG PACKAGE FOR TRANSPORT TIME STEP   2 IN FLOW TIME STEP 351 STRESS PERIOD   1
     6 TOTAL ITERATIONS
 
 SOLVING FOR HEAD 
 FLOW MODEL IS TRANSIENT
 FLOW MODEL CONTAINS CONSTANT-HEAD CELLS


 MAXIMUM STEPSIZE DURING WHICH ANY PARTICLE CANNOT MOVE MORE THAN ONE CELL
 =  5.674    (WHEN MIN. R.F.=1)  AT K=  28, I=   1, J=  54

 MAXIMUM STEPSIZE WHICH MEETS STABILITY CRITERION OF THE ADVECTION TERM
 (FOR PURE FINITE-DIFFERENCE OPTION, MIXELM=0) 
 =  3.841    (WHEN MIN. R.F.=1)  AT K=   2, I=   1, J=  77


 TOTAL NUMBER OF POINT SOURCES/SINKS PRESENT IN THE FLOW MODEL =    62

 MAXIMUM STEPSIZE WHICH MEETS STABILITY CRITERION OF THE SINK & SOURCE TERM
 =  1138.    (WHEN MIN. R.F.=1)  AT K=   2, I=   1, J= 120

 MAXIMUM STEPSIZE WHICH MEETS STABILITY CRITERION OF THE DISPERSION TERM
 =  20.29    (WHEN MIN. R.F.=1)  AT K=   1, I=   1, J=  31
     1 CALLS TO GCG PACKAGE FOR TRANSPORT TIME STEP   3 IN FLOW TIME STEP 351 STRESS PERIOD   1
     6 TOTAL ITERATIONS
 
 SOLVING FOR HEAD 
 FLOW MODEL IS TRANSIENT
 FLOW MODEL CONTAINS CONSTANT-HEAD CELLS


 MAXIMUM STEPSIZE DURING WHICH ANY PARTICLE CANNOT MOVE MORE THAN ONE CELL
 =  5.677    (WHEN MIN. R.F.=1)  AT K=  28, I=   1, J=  54

 MAXIMUM STEPSIZE WHICH MEETS STABILITY CRITERION OF THE ADVECTION TERM
 (FOR PURE FINITE-DIFFERENCE OPTION, MIXELM=0) 
 =  3.846    (WHEN MIN. R.F.=1)  AT K=   2, I=   1, J=  77


 TOTAL NUMBER OF POINT SOURCES/SINKS PRESENT IN THE FLOW MODEL =    62

 MAXIMUM STEPSIZE WHICH MEETS STABILITY CRITERION OF THE SINK & SOURCE TERM
 =  1360.    (WHEN MIN. R.F.=1)  AT K=   2, I=   1, J= 120

 MAXIMUM STEPSIZE WHICH MEETS STABILITY CRITERION OF THE DISPERSION TERM
 =  20.29    (WHEN MIN. R.F.=1)  AT K=   1, I=   1, J=  31
     1 CALLS TO GCG PACKAGE FOR TRANSPORT TIME STEP   4 IN FLOW TIME STEP 351 STRESS PERIOD   1
     4 TOTAL ITERATIONS
  MAXIMUM CONCENTRATION CHANGES FOR EACH ITERATION:
  MAX. CHANGE LAYER,ROW,COL MAX. CHANGE LAYER,ROW,COL MAX. CHANGE LAYER,ROW,COL MAX. CHANGE LAYER,ROW,COL MAX. CHANGE LAYER,ROW,COL
 ------------------------------------------------------------------------------------------------------------------------------------
   0.7917E-02 (  2,  1, 78)  0.9330E-04 (  2,  1, 75)  0.1356E-05 (  2,  1, 79)  0.2228E-07 (  3,  1, 79)


                                          ================================================
                                                         FROM TIME =   3510.0     TO    3520.0    

 
 SOLVING FOR HEAD 
 FLOW MODEL IS TRANSIENT
 FLOW MODEL CONTAINS CONSTANT-HEAD CELLS


 MAXIMUM STEPSIZE DURING WHICH ANY PARTICLE CANNOT MOVE MORE THAN ONE CELL
 =  5.682    (WHEN MIN. R.F.=1)  AT K=  28, I=   1, J=  54

 MAXIMUM STEPSIZE WHICH MEETS STABILITY CRITERION OF THE ADVECTION TERM
 (FOR PURE FINITE-DIFFERENCE OPTION, MIXELM=0) 
 =  3.870    (WHEN MIN. R.F.=1)  AT K=   2, I=   1, J=  77


 TOTAL NUMBER OF POINT SOURCES/SINKS PRESENT IN THE FLOW MODEL =    62

 MAXIMUM STEPSIZE WHICH MEETS STABILITY CRITERION OF THE SINK & SOURCE TERM
 =  2173.    (WHEN MIN. R.F.=1)  AT K=   2, I=   1, J= 120

 MAXIMUM STEPSIZE WHICH MEETS STABILITY CRITERION OF THE DISPERSION TERM
 =  20.29    (WHEN MIN. R.F.=1)  AT K=   1, I=   1, J=  31


     1 CALLS TO GCG PACKAGE FOR TRANSPORT TIME STEP   1 IN FLOW TIME STEP 352 STRESS PERIOD   1
     6 TOTAL ITERATIONS

 NO OUTPUT CONTROL FOR STRESS PERIOD    1   TIME STEP 352
 
 SOLVING FOR HEAD 
 FLOW MODEL IS TRANSIENT
 FLOW MODEL CONTAINS CONSTANT-HEAD CELLS


 MAXIMUM STEPSIZE DURING WHICH ANY PARTICLE CANNOT MOVE MORE THAN ONE CELL
 =  5.688    (WHEN MIN. R.F.=1)  AT K=  28, I=   1, J=  54

 MAXIMUM STEPSIZE WHICH MEETS STABILITY CRITERION OF THE ADVECTION TERM
 (FOR PURE FINITE-DIFFERENCE OPTION, MIXELM=0) 
 =  4.019    (WHEN MIN. R.F.=1)  AT K=   2, I=   1, J=  77


 TOTAL NUMBER OF POINT SOURCES/SINKS PRESENT IN THE FLOW MODEL =    62

 MAXIMUM STEPSIZE WHICH MEETS STABILITY CRITERION OF THE SINK & SOURCE TERM
 =  1668.    (WHEN MIN. R.F.=1)  AT K=   2, I=   1, J= 120

 MAXIMUM STEPSIZE WHICH MEETS STABILITY CRITERION OF THE DISPERSION TERM
 =  20.29    (WHEN MIN. R.F.=1)  AT K=   1, I=   1, J=  31
     1 CALLS TO GCG PACKAGE FOR TRANSPORT TIME STEP   2 IN FLOW TIME STEP 352 STRESS PERIOD   1
     6 TOTAL ITERATIONS
 
 SOLVING FOR HEAD 
 FLOW MODEL IS TRANSIENT
 FLOW MODEL CONTAINS CONSTANT-HEAD CELLS


 MAXIMUM STEPSIZE DURING WHICH ANY PARTICLE CANNOT MOVE MORE THAN ONE CELL
 =  5.694    (WHEN MIN. R.F.=1)  AT K=  28, I=   1, J=  54

 MAXIMUM STEPSIZE WHICH MEETS STABILITY CRITERION OF THE ADVECTION TERM
 (FOR PURE FINITE-DIFFERENCE OPTION, MIXELM=0) 
 =  4.363    (WHEN MIN. R.F.=1)  AT K=   2, I=   1, J=  77


 TOTAL NUMBER OF POINT SOURCES/SINKS PRESENT IN THE FLOW MODEL =    62

 MAXIMUM STEPSIZE WHICH MEETS STABILITY CRITERION OF THE SINK & SOURCE TERM
 =  1383.    (WHEN MIN. R.F.=1)  AT K=   2, I=   1, J= 120

 MAXIMUM STEPSIZE WHICH MEETS STABILITY CRITERION OF THE DISPERSION TERM
 =  20.29    (WHEN MIN. R.F.=1)  AT K=   1, I=   1, J=  31
     1 CALLS TO GCG PACKAGE FOR TRANSPORT TIME STEP   3 IN FLOW TIME STEP 352 STRESS PERIOD   1
     6 TOTAL ITERATIONS
 
 SOLVING FOR HEAD 
 FLOW MODEL IS TRANSIENT
 FLOW MODEL CONTAINS CONSTANT-HEAD CELLS


 MAXIMUM STEPSIZE DURING WHICH ANY PARTICLE CANNOT MOVE MORE THAN ONE CELL
 =  5.700    (WHEN MIN. R.F.=1)  AT K=  28, I=   1, J=  54

 MAXIMUM STEPSIZE WHICH MEETS STABILITY CRITERION OF THE ADVECTION TERM
 (FOR PURE FINITE-DIFFERENCE OPTION, MIXELM=0) 
 =  4.627    (WHEN MIN. R.F.=1)  AT K=   2, I=   1, J=  76


 TOTAL NUMBER OF POINT SOURCES/SINKS PRESENT IN THE FLOW MODEL =    62

 MAXIMUM STEPSIZE WHICH MEETS STABILITY CRITERION OF THE SINK & SOURCE TERM
 =  1383.    (WHEN MIN. R.F.=1)  AT K=   2, I=   1, J= 120

 MAXIMUM STEPSIZE WHICH MEETS STABILITY CRITERION OF THE DISPERSION TERM
 =  20.29    (WHEN MIN. R.F.=1)  AT K=   1, I=   1, J=  31
     1 CALLS TO GCG PACKAGE FOR TRANSPORT TIME STEP   4 IN FLOW TIME STEP 352 STRESS PERIOD   1
     5 TOTAL ITERATIONS
  MAXIMUM CONCENTRATION CHANGES FOR EACH ITERATION:
  MAX. CHANGE LAYER,ROW,COL MAX. CHANGE LAYER,ROW,COL MAX. CHANGE LAYER,ROW,COL MAX. CHANGE LAYER,ROW,COL MAX. CHANGE LAYER,ROW,COL
 ------------------------------------------------------------------------------------------------------------------------------------
   0.1294E-01 (  2,  1, 31)  0.2918E-03 (  2,  1, 76)  0.5897E-05 (  2,  1, 76)  0.1714E-06 ( 29,  1, 25)  0.4415E-08 (  4,  1, 75)


                                          ================================================
                                                         FROM TIME =   3520.0     TO    3530.0    

 
 SOLVING FOR HEAD 
 FLOW MODEL IS TRANSIENT
 FLOW MODEL CONTAINS CONSTANT-HEAD CELLS


 MAXIMUM STEPSIZE DURING WHICH ANY PARTICLE CANNOT MOVE MORE THAN ONE CELL
 =  5.708    (WHEN MIN. R.F.=1)  AT K=  28, I=   1, J=  54

 MAXIMUM STEPSIZE WHICH MEETS STABILITY CRITERION OF THE ADVECTION TERM
 (FOR PURE FINITE-DIFFERENCE OPTION, MIXELM=0) 
 =  4.506    (WHEN MIN. R.F.=1)  AT K=   2, I=   1, J=  76


 TOTAL NUMBER OF POINT SOURCES/SINKS PRESENT IN THE FLOW MODEL =    62

 MAXIMUM STEPSIZE WHICH MEETS STABILITY CRITERION OF THE SINK & SOURCE TERM
 =  2328.    (WHEN MIN. R.F.=1)  AT K=   2, I=   1, J= 120

 MAXIMUM STEPSIZE WHICH MEETS STABILITY CRITERION OF THE DISPERSION TERM
 =  20.29    (WHEN MIN. R.F.=1)  AT K=   1, I=   1, J=  31


     1 CALLS TO GCG PACKAGE FOR TRANSPORT TIME STEP   1 IN FLOW TIME STEP 353 STRESS PERIOD   1
     6 TOTAL ITERATIONS

 NO OUTPUT CONTROL FOR STRESS PERIOD    1   TIME STEP 353
 
 SOLVING FOR HEAD 
 FLOW MODEL IS TRANSIENT
 FLOW MODEL CONTAINS CONSTANT-HEAD CELLS


 MAXIMUM STEPSIZE DURING WHICH ANY PARTICLE CANNOT MOVE MORE THAN ONE CELL
 =  5.712    (WHEN MIN. R.F.=1)  AT K=  28, I=   1, J=  54

 MAXIMUM STEPSIZE WHICH MEETS STABILITY CRITERION OF THE ADVECTION TERM
 (FOR PURE FINITE-DIFFERENCE OPTION, MIXELM=0) 
 =  4.283    (WHEN MIN. R.F.=1)  AT K=   2, I=   1, J=  76


 TOTAL NUMBER OF POINT SOURCES/SINKS PRESENT IN THE FLOW MODEL =    62

 MAXIMUM STEPSIZE WHICH MEETS STABILITY CRITERION OF THE SINK & SOURCE TERM
 =  2085.    (WHEN MIN. R.F.=1)  AT K=   2, I=   1, J= 120

 MAXIMUM STEPSIZE WHICH MEETS STABILITY CRITERION OF THE DISPERSION TERM
 =  20.29    (WHEN MIN. R.F.=1)  AT K=   1, I=   1, J=  31
     1 CALLS TO GCG PACKAGE FOR TRANSPORT TIME STEP   2 IN FLOW TIME STEP 353 STRESS PERIOD   1
     6 TOTAL ITERATIONS
 
 SOLVING FOR HEAD 
 FLOW MODEL IS TRANSIENT
 FLOW MODEL CONTAINS CONSTANT-HEAD CELLS


 MAXIMUM STEPSIZE DURING WHICH ANY PARTICLE CANNOT MOVE MORE THAN ONE CELL
 =  5.716    (WHEN MIN. R.F.=1)  AT K=  28, I=   1, J=  54

 MAXIMUM STEPSIZE WHICH MEETS STABILITY CRITERION OF THE ADVECTION TERM
 (FOR PURE FINITE-DIFFERENCE OPTION, MIXELM=0) 
 =  4.253    (WHEN MIN. R.F.=1)  AT K=   2, I=   1, J=  76


 TOTAL NUMBER OF POINT SOURCES/SINKS PRESENT IN THE FLOW MODEL =    62

 MAXIMUM STEPSIZE WHICH MEETS STABILITY CRITERION OF THE SINK & SOURCE TERM
 =  2718.    (WHEN MIN. R.F.=1)  AT K=   2, I=   1, J= 120

 MAXIMUM STEPSIZE WHICH MEETS STABILITY CRITERION OF THE DISPERSION TERM
 =  20.29    (WHEN MIN. R.F.=1)  AT K=   1, I=   1, J=  31
     1 CALLS TO GCG PACKAGE FOR TRANSPORT TIME STEP   3 IN FLOW TIME STEP 353 STRESS PERIOD   1
     6 TOTAL ITERATIONS
  MAXIMUM CONCENTRATION CHANGES FOR EACH ITERATION:
  MAX. CHANGE LAYER,ROW,COL MAX. CHANGE LAYER,ROW,COL MAX. CHANGE LAYER,ROW,COL MAX. CHANGE LAYER,ROW,COL MAX. CHANGE LAYER,ROW,COL
 ------------------------------------------------------------------------------------------------------------------------------------
   0.3865E-01 (  2,  1, 77)  0.1632E-02 (  2,  1, 77)  0.1148E-03 (  2,  1, 78)  0.7999E-05 (  3,  1, 78)  0.3483E-06 (  4,  1, 47)
   0.2401E-07 (  4,  1, 77)


                                          ================================================
                                                         FROM TIME =   3530.0     TO    3540.0    

 
 SOLVING FOR HEAD 
 FLOW MODEL IS TRANSIENT
 FLOW MODEL CONTAINS CONSTANT-HEAD CELLS


 MAXIMUM STEPSIZE DURING WHICH ANY PARTICLE CANNOT MOVE MORE THAN ONE CELL
 =  5.722    (WHEN MIN. R.F.=1)  AT K=  28, I=   1, J=  54

 MAXIMUM STEPSIZE WHICH MEETS STABILITY CRITERION OF THE ADVECTION TERM
 (FOR PURE FINITE-DIFFERENCE OPTION, MIXELM=0) 
 =  4.328    (WHEN MIN. R.F.=1)  AT K=   2, I=   1, J=  40


 TOTAL NUMBER OF POINT SOURCES/SINKS PRESENT IN THE FLOW MODEL =    62

 MAXIMUM STEPSIZE WHICH MEETS STABILITY CRITERION OF THE SINK & SOURCE TERM
 =  2228.    (WHEN MIN. R.F.=1)  AT K=   2, I=   1, J= 120

 MAXIMUM STEPSIZE WHICH MEETS STABILITY CRITERION OF THE DISPERSION TERM
 =  20.29    (WHEN MIN. R.F.=1)  AT K=   1, I=   1, J=  31


     1 CALLS TO GCG PACKAGE FOR TRANSPORT TIME STEP   1 IN FLOW TIME STEP 354 STRESS PERIOD   1
     6 TOTAL ITERATIONS

 NO OUTPUT CONTROL FOR STRESS PERIOD    1   TIME STEP 354
 
 SOLVING FOR HEAD 
 FLOW MODEL IS TRANSIENT
 FLOW MODEL CONTAINS CONSTANT-HEAD CELLS


 MAXIMUM STEPSIZE DURING WHICH ANY PARTICLE CANNOT MOVE MORE THAN ONE CELL
 =  5.723    (WHEN MIN. R.F.=1)  AT K=   4, I=   1, J=  47

 MAXIMUM STEPSIZE WHICH MEETS STABILITY CRITERION OF THE ADVECTION TERM
 (FOR PURE FINITE-DIFFERENCE OPTION, MIXELM=0) 
 =  4.104    (WHEN MIN. R.F.=1)  AT K=   2, I=   1, J=  40


 TOTAL NUMBER OF POINT SOURCES/SINKS PRESENT IN THE FLOW MODEL =    62

 MAXIMUM STEPSIZE WHICH MEETS STABILITY CRITERION OF THE SINK & SOURCE TERM
 =  2089.    (WHEN MIN. R.F.=1)  AT K=   2, I=   1, J= 120

 MAXIMUM STEPSIZE WHICH MEETS STABILITY CRITERION OF THE DISPERSION TERM
 =  20.29    (WHEN MIN. R.F.=1)  AT K=   1, I=   1, J=  31
     1 CALLS TO GCG PACKAGE FOR TRANSPORT TIME STEP   2 IN FLOW TIME STEP 354 STRESS PERIOD   1
     6 TOTAL ITERATIONS
 
 SOLVING FOR HEAD 
 FLOW MODEL IS TRANSIENT
 FLOW MODEL CONTAINS CONSTANT-HEAD CELLS


 MAXIMUM STEPSIZE DURING WHICH ANY PARTICLE CANNOT MOVE MORE THAN ONE CELL
 =  5.435    (WHEN MIN. R.F.=1)  AT K=   4, I=   1, J=  47

 MAXIMUM STEPSIZE WHICH MEETS STABILITY CRITERION OF THE ADVECTION TERM
 (FOR PURE FINITE-DIFFERENCE OPTION, MIXELM=0) 
 =  4.102    (WHEN MIN. R.F.=1)  AT K=   2, I=   1, J=  40


 TOTAL NUMBER OF POINT SOURCES/SINKS PRESENT IN THE FLOW MODEL =    62

 MAXIMUM STEPSIZE WHICH MEETS STABILITY CRITERION OF THE SINK & SOURCE TERM
 =  2874.    (WHEN MIN. R.F.=1)  AT K=   2, I=   1, J= 120

 MAXIMUM STEPSIZE WHICH MEETS STABILITY CRITERION OF THE DISPERSION TERM
 =  20.29    (WHEN MIN. R.F.=1)  AT K=   1, I=   1, J=  31
     1 CALLS TO GCG PACKAGE FOR TRANSPORT TIME STEP   3 IN FLOW TIME STEP 354 STRESS PERIOD   1
     6 TOTAL ITERATIONS
 
 SOLVING FOR HEAD 
 FLOW MODEL IS TRANSIENT
 FLOW MODEL CONTAINS CONSTANT-HEAD CELLS


 MAXIMUM STEPSIZE DURING WHICH ANY PARTICLE CANNOT MOVE MORE THAN ONE CELL
 =  5.298    (WHEN MIN. R.F.=1)  AT K=   4, I=   1, J=  47

 MAXIMUM STEPSIZE WHICH MEETS STABILITY CRITERION OF THE ADVECTION TERM
 (FOR PURE FINITE-DIFFERENCE OPTION, MIXELM=0) 
 =  4.225    (WHEN MIN. R.F.=1)  AT K=   2, I=   1, J=  47


 TOTAL NUMBER OF POINT SOURCES/SINKS PRESENT IN THE FLOW MODEL =    62

 MAXIMUM STEPSIZE WHICH MEETS STABILITY CRITERION OF THE SINK & SOURCE TERM
 =  3827.    (WHEN MIN. R.F.=1)  AT K=   2, I=   1, J= 120

 MAXIMUM STEPSIZE WHICH MEETS STABILITY CRITERION OF THE DISPERSION TERM
 =  20.29    (WHEN MIN. R.F.=1)  AT K=   1, I=   1, J=  31
     1 CALLS TO GCG PACKAGE FOR TRANSPORT TIME STEP   4 IN FLOW TIME STEP 354 STRESS PERIOD   1
     4 TOTAL ITERATIONS
  MAXIMUM CONCENTRATION CHANGES FOR EACH ITERATION:
  MAX. CHANGE LAYER,ROW,COL MAX. CHANGE LAYER,ROW,COL MAX. CHANGE LAYER,ROW,COL MAX. CHANGE LAYER,ROW,COL MAX. CHANGE LAYER,ROW,COL
 ------------------------------------------------------------------------------------------------------------------------------------
   0.6067E-02 (  2,  1, 83)  0.5100E-04 (  2,  1, 83)  0.4519E-06 (  2,  1, 84)  0.5408E-08 (  3,  1, 84)


                                          ================================================
                                                         FROM TIME =   3540.0     TO    3550.0    

 
 SOLVING FOR HEAD 
 FLOW MODEL IS TRANSIENT
 FLOW MODEL CONTAINS CONSTANT-HEAD CELLS


 MAXIMUM STEPSIZE DURING WHICH ANY PARTICLE CANNOT MOVE MORE THAN ONE CELL
 =  5.290    (WHEN MIN. R.F.=1)  AT K=   4, I=   1, J=  47

 MAXIMUM STEPSIZE WHICH MEETS STABILITY CRITERION OF THE ADVECTION TERM
 (FOR PURE FINITE-DIFFERENCE OPTION, MIXELM=0) 
 =  4.227    (WHEN MIN. R.F.=1)  AT K=   2, I=   1, J=  47


 TOTAL NUMBER OF POINT SOURCES/SINKS PRESENT IN THE FLOW MODEL =    62

 MAXIMUM STEPSIZE WHICH MEETS STABILITY CRITERION OF THE SINK & SOURCE TERM
 = 0.1774E+05(WHEN MIN. R.F.=1)  AT K=   2, I=   1, J= 120

 MAXIMUM STEPSIZE WHICH MEETS STABILITY CRITERION OF THE DISPERSION TERM
 =  20.29    (WHEN MIN. R.F.=1)  AT K=   1, I=   1, J=  31


     1 CALLS TO GCG PACKAGE FOR TRANSPORT TIME STEP   1 IN FLOW TIME STEP 355 STRESS PERIOD   1
     6 TOTAL ITERATIONS

 NO OUTPUT CONTROL FOR STRESS PERIOD    1   TIME STEP 355
 
 SOLVING FOR HEAD 
 FLOW MODEL IS TRANSIENT
 FLOW MODEL CONTAINS CONSTANT-HEAD CELLS


 MAXIMUM STEPSIZE DURING WHICH ANY PARTICLE CANNOT MOVE MORE THAN ONE CELL
 =  5.288    (WHEN MIN. R.F.=1)  AT K=   4, I=   1, J=  47

 MAXIMUM STEPSIZE WHICH MEETS STABILITY CRITERION OF THE ADVECTION TERM
 (FOR PURE FINITE-DIFFERENCE OPTION, MIXELM=0) 
 =  3.910    (WHEN MIN. R.F.=1)  AT K=   2, I=   1, J=  41


 TOTAL NUMBER OF POINT SOURCES/SINKS PRESENT IN THE FLOW MODEL =    62

 MAXIMUM STEPSIZE WHICH MEETS STABILITY CRITERION OF THE SINK & SOURCE TERM
 =  2155.    (WHEN MIN. R.F.=1)  AT K=   2, I=   1, J=   1

 MAXIMUM STEPSIZE WHICH MEETS STABILITY CRITERION OF THE DISPERSION TERM
 =  20.29    (WHEN MIN. R.F.=1)  AT K=   1, I=   1, J=  31
     1 CALLS TO GCG PACKAGE FOR TRANSPORT TIME STEP   2 IN FLOW TIME STEP 355 STRESS PERIOD   1
     6 TOTAL ITERATIONS
 
 SOLVING FOR HEAD 
 FLOW MODEL IS TRANSIENT
 FLOW MODEL CONTAINS CONSTANT-HEAD CELLS


 MAXIMUM STEPSIZE DURING WHICH ANY PARTICLE CANNOT MOVE MORE THAN ONE CELL
 =  5.385    (WHEN MIN. R.F.=1)  AT K=   5, I=   1, J=  47

 MAXIMUM STEPSIZE WHICH MEETS STABILITY CRITERION OF THE ADVECTION TERM
 (FOR PURE FINITE-DIFFERENCE OPTION, MIXELM=0) 
 =  3.816    (WHEN MIN. R.F.=1)  AT K=   2, I=   1, J=  41


 TOTAL NUMBER OF POINT SOURCES/SINKS PRESENT IN THE FLOW MODEL =    62

 MAXIMUM STEPSIZE WHICH MEETS STABILITY CRITERION OF THE SINK & SOURCE TERM
 =  1655.    (WHEN MIN. R.F.=1)  AT K=   2, I=   1, J=   1

 MAXIMUM STEPSIZE WHICH MEETS STABILITY CRITERION OF THE DISPERSION TERM
 =  20.29    (WHEN MIN. R.F.=1)  AT K=   1, I=   1, J=  31
     1 CALLS TO GCG PACKAGE FOR TRANSPORT TIME STEP   3 IN FLOW TIME STEP 355 STRESS PERIOD   1
     6 TOTAL ITERATIONS
 
 SOLVING FOR HEAD 
 FLOW MODEL IS TRANSIENT
 FLOW MODEL CONTAINS CONSTANT-HEAD CELLS


 MAXIMUM STEPSIZE DURING WHICH ANY PARTICLE CANNOT MOVE MORE THAN ONE CELL
 =  5.303    (WHEN MIN. R.F.=1)  AT K=   4, I=   1, J=  74

 MAXIMUM STEPSIZE WHICH MEETS STABILITY CRITERION OF THE ADVECTION TERM
 (FOR PURE FINITE-DIFFERENCE OPTION, MIXELM=0) 
 =  3.891    (WHEN MIN. R.F.=1)  AT K=   2, I=   1, J=  41


 TOTAL NUMBER OF POINT SOURCES/SINKS PRESENT IN THE FLOW MODEL =    62

 MAXIMUM STEPSIZE WHICH MEETS STABILITY CRITERION OF THE SINK & SOURCE TERM
 =  1377.    (WHEN MIN. R.F.=1)  AT K=   2, I=   1, J=   1

 MAXIMUM STEPSIZE WHICH MEETS STABILITY CRITERION OF THE DISPERSION TERM
 =  20.29    (WHEN MIN. R.F.=1)  AT K=   1, I=   1, J=  31
     1 CALLS TO GCG PACKAGE FOR TRANSPORT TIME STEP   4 IN FLOW TIME STEP 355 STRESS PERIOD   1
     4 TOTAL ITERATIONS
  MAXIMUM CONCENTRATION CHANGES FOR EACH ITERATION:
  MAX. CHANGE LAYER,ROW,COL MAX. CHANGE LAYER,ROW,COL MAX. CHANGE LAYER,ROW,COL MAX. CHANGE LAYER,ROW,COL MAX. CHANGE LAYER,ROW,COL
 ------------------------------------------------------------------------------------------------------------------------------------
   0.8385E-02 (  2,  1, 82)  0.1144E-03 (  2,  1, 82)  0.1619E-05 (  2,  1, 83)  0.2460E-07 ( 29,  1, 23)


                                          ================================================
                                                         FROM TIME =   3550.0     TO    3560.0    

 
 SOLVING FOR HEAD 
 FLOW MODEL IS TRANSIENT
 FLOW MODEL CONTAINS CONSTANT-HEAD CELLS


 MAXIMUM STEPSIZE DURING WHICH ANY PARTICLE CANNOT MOVE MORE THAN ONE CELL
 =  5.254    (WHEN MIN. R.F.=1)  AT K=   4, I=   1, J=  74

 MAXIMUM STEPSIZE WHICH MEETS STABILITY CRITERION OF THE ADVECTION TERM
 (FOR PURE FINITE-DIFFERENCE OPTION, MIXELM=0) 
 =  3.913    (WHEN MIN. R.F.=1)  AT K=   2, I=   1, J=  81


 TOTAL NUMBER OF POINT SOURCES/SINKS PRESENT IN THE FLOW MODEL =    62

 MAXIMUM STEPSIZE WHICH MEETS STABILITY CRITERION OF THE SINK & SOURCE TERM
 =  2557.    (WHEN MIN. R.F.=1)  AT K=   2, I=   1, J=   1

 MAXIMUM STEPSIZE WHICH MEETS STABILITY CRITERION OF THE DISPERSION TERM
 =  20.29    (WHEN MIN. R.F.=1)  AT K=   1, I=   1, J=  31


     1 CALLS TO GCG PACKAGE FOR TRANSPORT TIME STEP   1 IN FLOW TIME STEP 356 STRESS PERIOD   1
     6 TOTAL ITERATIONS

 NO OUTPUT CONTROL FOR STRESS PERIOD    1   TIME STEP 356
 
 SOLVING FOR HEAD 
 FLOW MODEL IS TRANSIENT
 FLOW MODEL CONTAINS CONSTANT-HEAD CELLS


 MAXIMUM STEPSIZE DURING WHICH ANY PARTICLE CANNOT MOVE MORE THAN ONE CELL
 =  5.104    (WHEN MIN. R.F.=1)  AT K=   4, I=   1, J=  74

 MAXIMUM STEPSIZE WHICH MEETS STABILITY CRITERION OF THE ADVECTION TERM
 (FOR PURE FINITE-DIFFERENCE OPTION, MIXELM=0) 
 =  4.050    (WHEN MIN. R.F.=1)  AT K=   2, I=   1, J=  42


 TOTAL NUMBER OF POINT SOURCES/SINKS PRESENT IN THE FLOW MODEL =    62

 MAXIMUM STEPSIZE WHICH MEETS STABILITY CRITERION OF THE SINK & SOURCE TERM
 =  1297.    (WHEN MIN. R.F.=1)  AT K=   2, I=   1, J=   1

 MAXIMUM STEPSIZE WHICH MEETS STABILITY CRITERION OF THE DISPERSION TERM
 =  20.29    (WHEN MIN. R.F.=1)  AT K=   1, I=   1, J=  31
     1 CALLS TO GCG PACKAGE FOR TRANSPORT TIME STEP   2 IN FLOW TIME STEP 356 STRESS PERIOD   1
     6 TOTAL ITERATIONS
 
 SOLVING FOR HEAD 
 FLOW MODEL IS TRANSIENT
 FLOW MODEL CONTAINS CONSTANT-HEAD CELLS


 MAXIMUM STEPSIZE DURING WHICH ANY PARTICLE CANNOT MOVE MORE THAN ONE CELL
 =  5.015    (WHEN MIN. R.F.=1)  AT K=   4, I=   1, J=  74

 MAXIMUM STEPSIZE WHICH MEETS STABILITY CRITERION OF THE ADVECTION TERM
 (FOR PURE FINITE-DIFFERENCE OPTION, MIXELM=0) 
 =  3.813    (WHEN MIN. R.F.=1)  AT K=   2, I=   1, J=  42


 TOTAL NUMBER OF POINT SOURCES/SINKS PRESENT IN THE FLOW MODEL =    62

 MAXIMUM STEPSIZE WHICH MEETS STABILITY CRITERION OF THE SINK & SOURCE TERM
 =  1005.    (WHEN MIN. R.F.=1)  AT K=   2, I=   1, J=   1

 MAXIMUM STEPSIZE WHICH MEETS STABILITY CRITERION OF THE DISPERSION TERM
 =  20.29    (WHEN MIN. R.F.=1)  AT K=   1, I=   1, J=  31
     1 CALLS TO GCG PACKAGE FOR TRANSPORT TIME STEP   3 IN FLOW TIME STEP 356 STRESS PERIOD   1
     6 TOTAL ITERATIONS
 
 SOLVING FOR HEAD 
 FLOW MODEL IS TRANSIENT
 FLOW MODEL CONTAINS CONSTANT-HEAD CELLS


 MAXIMUM STEPSIZE DURING WHICH ANY PARTICLE CANNOT MOVE MORE THAN ONE CELL
 =  4.987    (WHEN MIN. R.F.=1)  AT K=   4, I=   1, J=  74

 MAXIMUM STEPSIZE WHICH MEETS STABILITY CRITERION OF THE ADVECTION TERM
 (FOR PURE FINITE-DIFFERENCE OPTION, MIXELM=0) 
 =  3.667    (WHEN MIN. R.F.=1)  AT K=   2, I=   1, J=  80


 TOTAL NUMBER OF POINT SOURCES/SINKS PRESENT IN THE FLOW MODEL =    62

 MAXIMUM STEPSIZE WHICH MEETS STABILITY CRITERION OF THE SINK & SOURCE TERM
 =  823.5    (WHEN MIN. R.F.=1)  AT K=   2, I=   1, J=   1

 MAXIMUM STEPSIZE WHICH MEETS STABILITY CRITERION OF THE DISPERSION TERM
 =  20.29    (WHEN MIN. R.F.=1)  AT K=   1, I=   1, J=  31
     1 CALLS TO GCG PACKAGE FOR TRANSPORT TIME STEP   4 IN FLOW TIME STEP 356 STRESS PERIOD   1
     5 TOTAL ITERATIONS
  MAXIMUM CONCENTRATION CHANGES FOR EACH ITERATION:
  MAX. CHANGE LAYER,ROW,COL MAX. CHANGE LAYER,ROW,COL MAX. CHANGE LAYER,ROW,COL MAX. CHANGE LAYER,ROW,COL MAX. CHANGE LAYER,ROW,COL
 ------------------------------------------------------------------------------------------------------------------------------------
   0.1196E-01 (  2,  1, 31)  0.2160E-03 (  2,  1, 81)  0.5229E-05 (  3,  1, 43)  0.2144E-06 (  3,  1, 45)  0.4463E-08 (  4,  1, 45)


                                          ================================================
                                                         FROM TIME =   3560.0     TO    3570.0    

 
 SOLVING FOR HEAD 
 FLOW MODEL IS TRANSIENT
 FLOW MODEL CONTAINS CONSTANT-HEAD CELLS


 MAXIMUM STEPSIZE DURING WHICH ANY PARTICLE CANNOT MOVE MORE THAN ONE CELL
 =  4.990    (WHEN MIN. R.F.=1)  AT K=   4, I=   1, J=  74

 MAXIMUM STEPSIZE WHICH MEETS STABILITY CRITERION OF THE ADVECTION TERM
 (FOR PURE FINITE-DIFFERENCE OPTION, MIXELM=0) 
 =  3.643    (WHEN MIN. R.F.=1)  AT K=   2, I=   1, J=  80


 TOTAL NUMBER OF POINT SOURCES/SINKS PRESENT IN THE FLOW MODEL =    62

 MAXIMUM STEPSIZE WHICH MEETS STABILITY CRITERION OF THE SINK & SOURCE TERM
 =  1225.    (WHEN MIN. R.F.=1)  AT K=   2, I=   1, J=   1

 MAXIMUM STEPSIZE WHICH MEETS STABILITY CRITERION OF THE DISPERSION TERM
 =  20.29    (WHEN MIN. R.F.=1)  AT K=   1, I=   1, J=  31


     1 CALLS TO GCG PACKAGE FOR TRANSPORT TIME STEP   1 IN FLOW TIME STEP 357 STRESS PERIOD   1
     6 TOTAL ITERATIONS

 NO OUTPUT CONTROL FOR STRESS PERIOD    1   TIME STEP 357
 
 SOLVING FOR HEAD 
 FLOW MODEL IS TRANSIENT
 FLOW MODEL CONTAINS CONSTANT-HEAD CELLS


 MAXIMUM STEPSIZE DURING WHICH ANY PARTICLE CANNOT MOVE MORE THAN ONE CELL
 =  5.032    (WHEN MIN. R.F.=1)  AT K=   4, I=   1, J=  74

 MAXIMUM STEPSIZE WHICH MEETS STABILITY CRITERION OF THE ADVECTION TERM
 (FOR PURE FINITE-DIFFERENCE OPTION, MIXELM=0) 
 =  3.650    (WHEN MIN. R.F.=1)  AT K=   2, I=   1, J=  80


 TOTAL NUMBER OF POINT SOURCES/SINKS PRESENT IN THE FLOW MODEL =    62

 MAXIMUM STEPSIZE WHICH MEETS STABILITY CRITERION OF THE SINK & SOURCE TERM
 =  900.7    (WHEN MIN. R.F.=1)  AT K=   2, I=   1, J=   1

 MAXIMUM STEPSIZE WHICH MEETS STABILITY CRITERION OF THE DISPERSION TERM
 =  20.29    (WHEN MIN. R.F.=1)  AT K=   1, I=   1, J=  31
     1 CALLS TO GCG PACKAGE FOR TRANSPORT TIME STEP   2 IN FLOW TIME STEP 357 STRESS PERIOD   1
     6 TOTAL ITERATIONS
 
 SOLVING FOR HEAD 
 FLOW MODEL IS TRANSIENT
 FLOW MODEL CONTAINS CONSTANT-HEAD CELLS


 MAXIMUM STEPSIZE DURING WHICH ANY PARTICLE CANNOT MOVE MORE THAN ONE CELL
 =  5.087    (WHEN MIN. R.F.=1)  AT K=   5, I=   1, J=  74

 MAXIMUM STEPSIZE WHICH MEETS STABILITY CRITERION OF THE ADVECTION TERM
 (FOR PURE FINITE-DIFFERENCE OPTION, MIXELM=0) 
 =  3.877    (WHEN MIN. R.F.=1)  AT K=   2, I=   1, J=  80


 TOTAL NUMBER OF POINT SOURCES/SINKS PRESENT IN THE FLOW MODEL =    62

 MAXIMUM STEPSIZE WHICH MEETS STABILITY CRITERION OF THE SINK & SOURCE TERM
 =  854.5    (WHEN MIN. R.F.=1)  AT K=   2, I=   1, J=   1

 MAXIMUM STEPSIZE WHICH MEETS STABILITY CRITERION OF THE DISPERSION TERM
 =  20.29    (WHEN MIN. R.F.=1)  AT K=   1, I=   1, J=  31
     1 CALLS TO GCG PACKAGE FOR TRANSPORT TIME STEP   3 IN FLOW TIME STEP 357 STRESS PERIOD   1
     6 TOTAL ITERATIONS
 
 SOLVING FOR HEAD 
 FLOW MODEL IS TRANSIENT
 FLOW MODEL CONTAINS CONSTANT-HEAD CELLS


 MAXIMUM STEPSIZE DURING WHICH ANY PARTICLE CANNOT MOVE MORE THAN ONE CELL
 =  5.144    (WHEN MIN. R.F.=1)  AT K=   5, I=   1, J=  74

 MAXIMUM STEPSIZE WHICH MEETS STABILITY CRITERION OF THE ADVECTION TERM
 (FOR PURE FINITE-DIFFERENCE OPTION, MIXELM=0) 
 =  3.804    (WHEN MIN. R.F.=1)  AT K=   2, I=   1, J=  79


 TOTAL NUMBER OF POINT SOURCES/SINKS PRESENT IN THE FLOW MODEL =    62

 MAXIMUM STEPSIZE WHICH MEETS STABILITY CRITERION OF THE SINK & SOURCE TERM
 =  765.6    (WHEN MIN. R.F.=1)  AT K=   2, I=   1, J=   1

 MAXIMUM STEPSIZE WHICH MEETS STABILITY CRITERION OF THE DISPERSION TERM
 =  20.29    (WHEN MIN. R.F.=1)  AT K=   1, I=   1, J=  31
     1 CALLS TO GCG PACKAGE FOR TRANSPORT TIME STEP   4 IN FLOW TIME STEP 357 STRESS PERIOD   1
     5 TOTAL ITERATIONS
  MAXIMUM CONCENTRATION CHANGES FOR EACH ITERATION:
  MAX. CHANGE LAYER,ROW,COL MAX. CHANGE LAYER,ROW,COL MAX. CHANGE LAYER,ROW,COL MAX. CHANGE LAYER,ROW,COL MAX. CHANGE LAYER,ROW,COL
 ------------------------------------------------------------------------------------------------------------------------------------
   0.2065E-01 (  2,  1, 81)  0.6079E-03 (  2,  1, 79)  0.2286E-04 (  3,  1, 79)  0.1028E-05 (  3,  1, 76)  0.3041E-07 (  4,  1, 76)


                                          ================================================
                                                         FROM TIME =   3570.0     TO    3580.0    

 
 SOLVING FOR HEAD 
 FLOW MODEL IS TRANSIENT
 FLOW MODEL CONTAINS CONSTANT-HEAD CELLS


 MAXIMUM STEPSIZE DURING WHICH ANY PARTICLE CANNOT MOVE MORE THAN ONE CELL
 =  5.204    (WHEN MIN. R.F.=1)  AT K=   5, I=   1, J=  74

 MAXIMUM STEPSIZE WHICH MEETS STABILITY CRITERION OF THE ADVECTION TERM
 (FOR PURE FINITE-DIFFERENCE OPTION, MIXELM=0) 
 =  3.674    (WHEN MIN. R.F.=1)  AT K=   2, I=   1, J=  79


 TOTAL NUMBER OF POINT SOURCES/SINKS PRESENT IN THE FLOW MODEL =    62

 MAXIMUM STEPSIZE WHICH MEETS STABILITY CRITERION OF THE SINK & SOURCE TERM
 =  833.4    (WHEN MIN. R.F.=1)  AT K=   2, I=   1, J=   1

 MAXIMUM STEPSIZE WHICH MEETS STABILITY CRITERION OF THE DISPERSION TERM
 =  20.29    (WHEN MIN. R.F.=1)  AT K=   1, I=   1, J=  31


     1 CALLS TO GCG PACKAGE FOR TRANSPORT TIME STEP   1 IN FLOW TIME STEP 358 STRESS PERIOD   1
     6 TOTAL ITERATIONS

 NO OUTPUT CONTROL FOR STRESS PERIOD    1   TIME STEP 358
 
 SOLVING FOR HEAD 
 FLOW MODEL IS TRANSIENT
 FLOW MODEL CONTAINS CONSTANT-HEAD CELLS


 MAXIMUM STEPSIZE DURING WHICH ANY PARTICLE CANNOT MOVE MORE THAN ONE CELL
 =  5.330    (WHEN MIN. R.F.=1)  AT K=   5, I=   1, J=  74

 MAXIMUM STEPSIZE WHICH MEETS STABILITY CRITERION OF THE ADVECTION TERM
 (FOR PURE FINITE-DIFFERENCE OPTION, MIXELM=0) 
 =  3.574    (WHEN MIN. R.F.=1)  AT K=   2, I=   1, J=  79


 TOTAL NUMBER OF POINT SOURCES/SINKS PRESENT IN THE FLOW MODEL =    62

 MAXIMUM STEPSIZE WHICH MEETS STABILITY CRITERION OF THE SINK & SOURCE TERM
 =  723.0    (WHEN MIN. R.F.=1)  AT K=   2, I=   1, J=   1

 MAXIMUM STEPSIZE WHICH MEETS STABILITY CRITERION OF THE DISPERSION TERM
 =  20.29    (WHEN MIN. R.F.=1)  AT K=   1, I=   1, J=  31
     1 CALLS TO GCG PACKAGE FOR TRANSPORT TIME STEP   2 IN FLOW TIME STEP 358 STRESS PERIOD   1
     6 TOTAL ITERATIONS
 
 SOLVING FOR HEAD 
 FLOW MODEL IS TRANSIENT
 FLOW MODEL CONTAINS CONSTANT-HEAD CELLS


 MAXIMUM STEPSIZE DURING WHICH ANY PARTICLE CANNOT MOVE MORE THAN ONE CELL
 =  5.427    (WHEN MIN. R.F.=1)  AT K=   6, I=   1, J=  74

 MAXIMUM STEPSIZE WHICH MEETS STABILITY CRITERION OF THE ADVECTION TERM
 (FOR PURE FINITE-DIFFERENCE OPTION, MIXELM=0) 
 =  3.603    (WHEN MIN. R.F.=1)  AT K=   2, I=   1, J=  79


 TOTAL NUMBER OF POINT SOURCES/SINKS PRESENT IN THE FLOW MODEL =    62

 MAXIMUM STEPSIZE WHICH MEETS STABILITY CRITERION OF THE SINK & SOURCE TERM
 =  741.6    (WHEN MIN. R.F.=1)  AT K=   2, I=   1, J=   1

 MAXIMUM STEPSIZE WHICH MEETS STABILITY CRITERION OF THE DISPERSION TERM
 =  20.29    (WHEN MIN. R.F.=1)  AT K=   1, I=   1, J=  31
     1 CALLS TO GCG PACKAGE FOR TRANSPORT TIME STEP   3 IN FLOW TIME STEP 358 STRESS PERIOD   1
     6 TOTAL ITERATIONS
 
 SOLVING FOR HEAD 
 FLOW MODEL IS TRANSIENT
 FLOW MODEL CONTAINS CONSTANT-HEAD CELLS


 MAXIMUM STEPSIZE DURING WHICH ANY PARTICLE CANNOT MOVE MORE THAN ONE CELL
 =  5.459    (WHEN MIN. R.F.=1)  AT K=  28, I=   1, J=  67

 MAXIMUM STEPSIZE WHICH MEETS STABILITY CRITERION OF THE ADVECTION TERM
 (FOR PURE FINITE-DIFFERENCE OPTION, MIXELM=0) 
 =  3.776    (WHEN MIN. R.F.=1)  AT K=   2, I=   1, J=  79


 TOTAL NUMBER OF POINT SOURCES/SINKS PRESENT IN THE FLOW MODEL =    62

 MAXIMUM STEPSIZE WHICH MEETS STABILITY CRITERION OF THE SINK & SOURCE TERM
 =  731.7    (WHEN MIN. R.F.=1)  AT K=   2, I=   1, J=   1

 MAXIMUM STEPSIZE WHICH MEETS STABILITY CRITERION OF THE DISPERSION TERM
 =  20.29    (WHEN MIN. R.F.=1)  AT K=   1, I=   1, J=  31
     1 CALLS TO GCG PACKAGE FOR TRANSPORT TIME STEP   4 IN FLOW TIME STEP 358 STRESS PERIOD   1
     5 TOTAL ITERATIONS
  MAXIMUM CONCENTRATION CHANGES FOR EACH ITERATION:
  MAX. CHANGE LAYER,ROW,COL MAX. CHANGE LAYER,ROW,COL MAX. CHANGE LAYER,ROW,COL MAX. CHANGE LAYER,ROW,COL MAX. CHANGE LAYER,ROW,COL
 ------------------------------------------------------------------------------------------------------------------------------------
   0.2096E-01 (  2,  1, 80)  0.5543E-03 (  2,  1, 78)  0.2347E-04 (  3,  1, 78)  0.1001E-05 (  3,  1, 76)  0.2597E-07 (  4,  1, 76)


                                          ================================================
                                                         FROM TIME =   3580.0     TO    3590.0    

 
 SOLVING FOR HEAD 
 FLOW MODEL IS TRANSIENT
 FLOW MODEL CONTAINS CONSTANT-HEAD CELLS


 MAXIMUM STEPSIZE DURING WHICH ANY PARTICLE CANNOT MOVE MORE THAN ONE CELL
 =  5.434    (WHEN MIN. R.F.=1)  AT K=  28, I=   1, J=  67

 MAXIMUM STEPSIZE WHICH MEETS STABILITY CRITERION OF THE ADVECTION TERM
 (FOR PURE FINITE-DIFFERENCE OPTION, MIXELM=0) 
 =  4.001    (WHEN MIN. R.F.=1)  AT K=   2, I=   1, J=  79


 TOTAL NUMBER OF POINT SOURCES/SINKS PRESENT IN THE FLOW MODEL =    62

 MAXIMUM STEPSIZE WHICH MEETS STABILITY CRITERION OF THE SINK & SOURCE TERM
 =  766.5    (WHEN MIN. R.F.=1)  AT K=   2, I=   1, J=   1

 MAXIMUM STEPSIZE WHICH MEETS STABILITY CRITERION OF THE DISPERSION TERM
 =  20.29    (WHEN MIN. R.F.=1)  AT K=   1, I=   1, J=  31


     1 CALLS TO GCG PACKAGE FOR TRANSPORT TIME STEP   1 IN FLOW TIME STEP 359 STRESS PERIOD   1
     6 TOTAL ITERATIONS

 NO OUTPUT CONTROL FOR STRESS PERIOD    1   TIME STEP 359
 
 SOLVING FOR HEAD 
 FLOW MODEL IS TRANSIENT
 FLOW MODEL CONTAINS CONSTANT-HEAD CELLS


 MAXIMUM STEPSIZE DURING WHICH ANY PARTICLE CANNOT MOVE MORE THAN ONE CELL
 =  5.395    (WHEN MIN. R.F.=1)  AT K=  28, I=   1, J=  67

 MAXIMUM STEPSIZE WHICH MEETS STABILITY CRITERION OF THE ADVECTION TERM
 (FOR PURE FINITE-DIFFERENCE OPTION, MIXELM=0) 
 =  3.849    (WHEN MIN. R.F.=1)  AT K=   2, I=   1, J=  78


 TOTAL NUMBER OF POINT SOURCES/SINKS PRESENT IN THE FLOW MODEL =    62

 MAXIMUM STEPSIZE WHICH MEETS STABILITY CRITERION OF THE SINK & SOURCE TERM
 =  645.1    (WHEN MIN. R.F.=1)  AT K=   2, I=   1, J=   1

 MAXIMUM STEPSIZE WHICH MEETS STABILITY CRITERION OF THE DISPERSION TERM
 =  20.29    (WHEN MIN. R.F.=1)  AT K=   1, I=   1, J=  31
     1 CALLS TO GCG PACKAGE FOR TRANSPORT TIME STEP   2 IN FLOW TIME STEP 359 STRESS PERIOD   1
     6 TOTAL ITERATIONS
 
 SOLVING FOR HEAD 
 FLOW MODEL IS TRANSIENT
 FLOW MODEL CONTAINS CONSTANT-HEAD CELLS


 MAXIMUM STEPSIZE DURING WHICH ANY PARTICLE CANNOT MOVE MORE THAN ONE CELL
 =  5.361    (WHEN MIN. R.F.=1)  AT K=  28, I=   1, J=  67

 MAXIMUM STEPSIZE WHICH MEETS STABILITY CRITERION OF THE ADVECTION TERM
 (FOR PURE FINITE-DIFFERENCE OPTION, MIXELM=0) 
 =  3.680    (WHEN MIN. R.F.=1)  AT K=   2, I=   1, J=  78


 TOTAL NUMBER OF POINT SOURCES/SINKS PRESENT IN THE FLOW MODEL =    62

 MAXIMUM STEPSIZE WHICH MEETS STABILITY CRITERION OF THE SINK & SOURCE TERM
 =  606.2    (WHEN MIN. R.F.=1)  AT K=   2, I=   1, J=   1

 MAXIMUM STEPSIZE WHICH MEETS STABILITY CRITERION OF THE DISPERSION TERM
 =  20.29    (WHEN MIN. R.F.=1)  AT K=   1, I=   1, J=  31
     1 CALLS TO GCG PACKAGE FOR TRANSPORT TIME STEP   3 IN FLOW TIME STEP 359 STRESS PERIOD   1
     6 TOTAL ITERATIONS
 
 SOLVING FOR HEAD 
 FLOW MODEL IS TRANSIENT
 FLOW MODEL CONTAINS CONSTANT-HEAD CELLS


 MAXIMUM STEPSIZE DURING WHICH ANY PARTICLE CANNOT MOVE MORE THAN ONE CELL
 =  5.336    (WHEN MIN. R.F.=1)  AT K=  28, I=   1, J=  67

 MAXIMUM STEPSIZE WHICH MEETS STABILITY CRITERION OF THE ADVECTION TERM
 (FOR PURE FINITE-DIFFERENCE OPTION, MIXELM=0) 
 =  3.668    (WHEN MIN. R.F.=1)  AT K=   2, I=   1, J=  78


 TOTAL NUMBER OF POINT SOURCES/SINKS PRESENT IN THE FLOW MODEL =    62

 MAXIMUM STEPSIZE WHICH MEETS STABILITY CRITERION OF THE SINK & SOURCE TERM
 =  602.7    (WHEN MIN. R.F.=1)  AT K=   2, I=   1, J=   1

 MAXIMUM STEPSIZE WHICH MEETS STABILITY CRITERION OF THE DISPERSION TERM
 =  20.29    (WHEN MIN. R.F.=1)  AT K=   1, I=   1, J=  31
     1 CALLS TO GCG PACKAGE FOR TRANSPORT TIME STEP   4 IN FLOW TIME STEP 359 STRESS PERIOD   1
     5 TOTAL ITERATIONS
  MAXIMUM CONCENTRATION CHANGES FOR EACH ITERATION:
  MAX. CHANGE LAYER,ROW,COL MAX. CHANGE LAYER,ROW,COL MAX. CHANGE LAYER,ROW,COL MAX. CHANGE LAYER,ROW,COL MAX. CHANGE LAYER,ROW,COL
 ------------------------------------------------------------------------------------------------------------------------------------
   0.1522E-01 (  2,  1, 79)  0.3203E-03 (  2,  1, 79)  0.8414E-05 (  2,  1, 80)  0.2485E-06 (  3,  1, 80)  0.6200E-08 (  4,  1, 79)


                                          ================================================
                                                         FROM TIME =   3590.0     TO    3600.0    

 
 SOLVING FOR HEAD 
 FLOW MODEL IS TRANSIENT
 FLOW MODEL CONTAINS CONSTANT-HEAD CELLS


 MAXIMUM STEPSIZE DURING WHICH ANY PARTICLE CANNOT MOVE MORE THAN ONE CELL
 =  5.330    (WHEN MIN. R.F.=1)  AT K=  28, I=   1, J=  67

 MAXIMUM STEPSIZE WHICH MEETS STABILITY CRITERION OF THE ADVECTION TERM
 (FOR PURE FINITE-DIFFERENCE OPTION, MIXELM=0) 
 =  3.709    (WHEN MIN. R.F.=1)  AT K=   2, I=   1, J=  78


 TOTAL NUMBER OF POINT SOURCES/SINKS PRESENT IN THE FLOW MODEL =    62

 MAXIMUM STEPSIZE WHICH MEETS STABILITY CRITERION OF THE SINK & SOURCE TERM
 =  723.0    (WHEN MIN. R.F.=1)  AT K=   2, I=   1, J=   1

 MAXIMUM STEPSIZE WHICH MEETS STABILITY CRITERION OF THE DISPERSION TERM
 =  20.29    (WHEN MIN. R.F.=1)  AT K=   1, I=   1, J=  31


     1 CALLS TO GCG PACKAGE FOR TRANSPORT TIME STEP   1 IN FLOW TIME STEP 360 STRESS PERIOD   1
     6 TOTAL ITERATIONS

 NO OUTPUT CONTROL FOR STRESS PERIOD    1   TIME STEP 360
 
 SOLVING FOR HEAD 
 FLOW MODEL IS TRANSIENT
 FLOW MODEL CONTAINS CONSTANT-HEAD CELLS


 MAXIMUM STEPSIZE DURING WHICH ANY PARTICLE CANNOT MOVE MORE THAN ONE CELL
 =  5.322    (WHEN MIN. R.F.=1)  AT K=  28, I=   1, J=  67

 MAXIMUM STEPSIZE WHICH MEETS STABILITY CRITERION OF THE ADVECTION TERM
 (FOR PURE FINITE-DIFFERENCE OPTION, MIXELM=0) 
 =  3.874    (WHEN MIN. R.F.=1)  AT K=   2, I=   1, J=  78


 TOTAL NUMBER OF POINT SOURCES/SINKS PRESENT IN THE FLOW MODEL =    62

 MAXIMUM STEPSIZE WHICH MEETS STABILITY CRITERION OF THE SINK & SOURCE TERM
 =  629.4    (WHEN MIN. R.F.=1)  AT K=   2, I=   1, J=   1

 MAXIMUM STEPSIZE WHICH MEETS STABILITY CRITERION OF THE DISPERSION TERM
 =  20.29    (WHEN MIN. R.F.=1)  AT K=   1, I=   1, J=  31
     1 CALLS TO GCG PACKAGE FOR TRANSPORT TIME STEP   2 IN FLOW TIME STEP 360 STRESS PERIOD   1
     6 TOTAL ITERATIONS
 
 SOLVING FOR HEAD 
 FLOW MODEL IS TRANSIENT
 FLOW MODEL CONTAINS CONSTANT-HEAD CELLS


 MAXIMUM STEPSIZE DURING WHICH ANY PARTICLE CANNOT MOVE MORE THAN ONE CELL
 =  5.321    (WHEN MIN. R.F.=1)  AT K=  28, I=   1, J=  67

 MAXIMUM STEPSIZE WHICH MEETS STABILITY CRITERION OF THE ADVECTION TERM
 (FOR PURE FINITE-DIFFERENCE OPTION, MIXELM=0) 
 =  4.240    (WHEN MIN. R.F.=1)  AT K=   2, I=   1, J=  78


 TOTAL NUMBER OF POINT SOURCES/SINKS PRESENT IN THE FLOW MODEL =    62

 MAXIMUM STEPSIZE WHICH MEETS STABILITY CRITERION OF THE SINK & SOURCE TERM
 =  569.8    (WHEN MIN. R.F.=1)  AT K=   2, I=   1, J=   1

 MAXIMUM STEPSIZE WHICH MEETS STABILITY CRITERION OF THE DISPERSION TERM
 =  20.29    (WHEN MIN. R.F.=1)  AT K=   1, I=   1, J=  31
     1 CALLS TO GCG PACKAGE FOR TRANSPORT TIME STEP   3 IN FLOW TIME STEP 360 STRESS PERIOD   1
     6 TOTAL ITERATIONS
 
 SOLVING FOR HEAD 
 FLOW MODEL IS TRANSIENT
 FLOW MODEL CONTAINS CONSTANT-HEAD CELLS


 MAXIMUM STEPSIZE DURING WHICH ANY PARTICLE CANNOT MOVE MORE THAN ONE CELL
 =  5.328    (WHEN MIN. R.F.=1)  AT K=  28, I=   1, J=  67

 MAXIMUM STEPSIZE WHICH MEETS STABILITY CRITERION OF THE ADVECTION TERM
 (FOR PURE FINITE-DIFFERENCE OPTION, MIXELM=0) 
 =  4.025    (WHEN MIN. R.F.=1)  AT K=   2, I=   1, J=  77


 TOTAL NUMBER OF POINT SOURCES/SINKS PRESENT IN THE FLOW MODEL =    62

 MAXIMUM STEPSIZE WHICH MEETS STABILITY CRITERION OF THE SINK & SOURCE TERM
 =  512.3    (WHEN MIN. R.F.=1)  AT K=   2, I=   1, J=   1

 MAXIMUM STEPSIZE WHICH MEETS STABILITY CRITERION OF THE DISPERSION TERM
 =  20.29    (WHEN MIN. R.F.=1)  AT K=   1, I=   1, J=  31
     1 CALLS TO GCG PACKAGE FOR TRANSPORT TIME STEP   4 IN FLOW TIME STEP 360 STRESS PERIOD   1
     5 TOTAL ITERATIONS
  MAXIMUM CONCENTRATION CHANGES FOR EACH ITERATION:
  MAX. CHANGE LAYER,ROW,COL MAX. CHANGE LAYER,ROW,COL MAX. CHANGE LAYER,ROW,COL MAX. CHANGE LAYER,ROW,COL MAX. CHANGE LAYER,ROW,COL
 ------------------------------------------------------------------------------------------------------------------------------------
   0.1672E-01 (  2,  1, 31)  0.5193E-03 (  2,  1, 77)  0.1416E-04 (  3,  1, 77)  0.4065E-06 (  3,  1, 42)  0.1482E-07 (  4,  1, 46)


                                          ================================================
                                                         FROM TIME =   3600.0     TO    3610.0    

 
 SOLVING FOR HEAD 
 FLOW MODEL IS TRANSIENT
 FLOW MODEL CONTAINS CONSTANT-HEAD CELLS


 MAXIMUM STEPSIZE DURING WHICH ANY PARTICLE CANNOT MOVE MORE THAN ONE CELL
 =  5.337    (WHEN MIN. R.F.=1)  AT K=  28, I=   1, J=  67

 MAXIMUM STEPSIZE WHICH MEETS STABILITY CRITERION OF THE ADVECTION TERM
 (FOR PURE FINITE-DIFFERENCE OPTION, MIXELM=0) 
 =  3.932    (WHEN MIN. R.F.=1)  AT K=   2, I=   1, J=  77


 TOTAL NUMBER OF POINT SOURCES/SINKS PRESENT IN THE FLOW MODEL =    62

 MAXIMUM STEPSIZE WHICH MEETS STABILITY CRITERION OF THE SINK & SOURCE TERM
 =  517.1    (WHEN MIN. R.F.=1)  AT K=   2, I=   1, J=   1

 MAXIMUM STEPSIZE WHICH MEETS STABILITY CRITERION OF THE DISPERSION TERM
 =  20.29    (WHEN MIN. R.F.=1)  AT K=   1, I=   1, J=  31


     1 CALLS TO GCG PACKAGE FOR TRANSPORT TIME STEP   1 IN FLOW TIME STEP 361 STRESS PERIOD   1
     6 TOTAL ITERATIONS

 NO OUTPUT CONTROL FOR STRESS PERIOD    1   TIME STEP 361
 
 SOLVING FOR HEAD 
 FLOW MODEL IS TRANSIENT
 FLOW MODEL CONTAINS CONSTANT-HEAD CELLS


 MAXIMUM STEPSIZE DURING WHICH ANY PARTICLE CANNOT MOVE MORE THAN ONE CELL
 =  5.358    (WHEN MIN. R.F.=1)  AT K=  28, I=   1, J=  67

 MAXIMUM STEPSIZE WHICH MEETS STABILITY CRITERION OF THE ADVECTION TERM
 (FOR PURE FINITE-DIFFERENCE OPTION, MIXELM=0) 
 =  3.851    (WHEN MIN. R.F.=1)  AT K=   2, I=   1, J=  77


 TOTAL NUMBER OF POINT SOURCES/SINKS PRESENT IN THE FLOW MODEL =    62

 MAXIMUM STEPSIZE WHICH MEETS STABILITY CRITERION OF THE SINK & SOURCE TERM
 =  470.3    (WHEN MIN. R.F.=1)  AT K=   2, I=   1, J=   1

 MAXIMUM STEPSIZE WHICH MEETS STABILITY CRITERION OF THE DISPERSION TERM
 =  20.29    (WHEN MIN. R.F.=1)  AT K=   1, I=   1, J=  31
     1 CALLS TO GCG PACKAGE FOR TRANSPORT TIME STEP   2 IN FLOW TIME STEP 361 STRESS PERIOD   1
     6 TOTAL ITERATIONS
 
 SOLVING FOR HEAD 
 FLOW MODEL IS TRANSIENT
 FLOW MODEL CONTAINS CONSTANT-HEAD CELLS


 MAXIMUM STEPSIZE DURING WHICH ANY PARTICLE CANNOT MOVE MORE THAN ONE CELL
 =  5.383    (WHEN MIN. R.F.=1)  AT K=  28, I=   1, J=  67

 MAXIMUM STEPSIZE WHICH MEETS STABILITY CRITERION OF THE ADVECTION TERM
 (FOR PURE FINITE-DIFFERENCE OPTION, MIXELM=0) 
 =  3.888    (WHEN MIN. R.F.=1)  AT K=   2, I=   1, J=  77


 TOTAL NUMBER OF POINT SOURCES/SINKS PRESENT IN THE FLOW MODEL =    62

 MAXIMUM STEPSIZE WHICH MEETS STABILITY CRITERION OF THE SINK & SOURCE TERM
 =  470.1    (WHEN MIN. R.F.=1)  AT K=   2, I=   1, J=   1

 MAXIMUM STEPSIZE WHICH MEETS STABILITY CRITERION OF THE DISPERSION TERM
 =  20.29    (WHEN MIN. R.F.=1)  AT K=   1, I=   1, J=  31
     1 CALLS TO GCG PACKAGE FOR TRANSPORT TIME STEP   3 IN FLOW TIME STEP 361 STRESS PERIOD   1
     6 TOTAL ITERATIONS
 
 SOLVING FOR HEAD 
 FLOW MODEL IS TRANSIENT
 FLOW MODEL CONTAINS CONSTANT-HEAD CELLS


 MAXIMUM STEPSIZE DURING WHICH ANY PARTICLE CANNOT MOVE MORE THAN ONE CELL
 =  5.412    (WHEN MIN. R.F.=1)  AT K=  28, I=   1, J=  67

 MAXIMUM STEPSIZE WHICH MEETS STABILITY CRITERION OF THE ADVECTION TERM
 (FOR PURE FINITE-DIFFERENCE OPTION, MIXELM=0) 
 =  4.042    (WHEN MIN. R.F.=1)  AT K=   2, I=   1, J=  77


 TOTAL NUMBER OF POINT SOURCES/SINKS PRESENT IN THE FLOW MODEL =    62

 MAXIMUM STEPSIZE WHICH MEETS STABILITY CRITERION OF THE SINK & SOURCE TERM
 =  443.7    (WHEN MIN. R.F.=1)  AT K=   2, I=   1, J=   1

 MAXIMUM STEPSIZE WHICH MEETS STABILITY CRITERION OF THE DISPERSION TERM
 =  20.29    (WHEN MIN. R.F.=1)  AT K=   1, I=   1, J=  31
     1 CALLS TO GCG PACKAGE FOR TRANSPORT TIME STEP   4 IN FLOW TIME STEP 361 STRESS PERIOD   1
     5 TOTAL ITERATIONS
  MAXIMUM CONCENTRATION CHANGES FOR EACH ITERATION:
  MAX. CHANGE LAYER,ROW,COL MAX. CHANGE LAYER,ROW,COL MAX. CHANGE LAYER,ROW,COL MAX. CHANGE LAYER,ROW,COL MAX. CHANGE LAYER,ROW,COL
 ------------------------------------------------------------------------------------------------------------------------------------
   0.1432E-01 (  2,  1, 78)  0.2414E-03 (  2,  1, 75)  0.6203E-05 (  2,  1, 79)  0.1781E-06 (  3,  1, 79)  0.3025E-08 (  4,  1, 75)


                                          ================================================
                                                         FROM TIME =   3610.0     TO    3620.0    

 
 SOLVING FOR HEAD 
 FLOW MODEL IS TRANSIENT
 FLOW MODEL CONTAINS CONSTANT-HEAD CELLS


 MAXIMUM STEPSIZE DURING WHICH ANY PARTICLE CANNOT MOVE MORE THAN ONE CELL
 =  5.427    (WHEN MIN. R.F.=1)  AT K=  28, I=   1, J=  67

 MAXIMUM STEPSIZE WHICH MEETS STABILITY CRITERION OF THE ADVECTION TERM
 (FOR PURE FINITE-DIFFERENCE OPTION, MIXELM=0) 
 =  4.163    (WHEN MIN. R.F.=1)  AT K=   2, I=   1, J=  77


 TOTAL NUMBER OF POINT SOURCES/SINKS PRESENT IN THE FLOW MODEL =    62

 MAXIMUM STEPSIZE WHICH MEETS STABILITY CRITERION OF THE SINK & SOURCE TERM
 =  440.5    (WHEN MIN. R.F.=1)  AT K=   2, I=   1, J=   1

 MAXIMUM STEPSIZE WHICH MEETS STABILITY CRITERION OF THE DISPERSION TERM
 =  20.29    (WHEN MIN. R.F.=1)  AT K=   1, I=   1, J=  31


     1 CALLS TO GCG PACKAGE FOR TRANSPORT TIME STEP   1 IN FLOW TIME STEP 362 STRESS PERIOD   1
     6 TOTAL ITERATIONS

 NO OUTPUT CONTROL FOR STRESS PERIOD    1   TIME STEP 362
 
 SOLVING FOR HEAD 
 FLOW MODEL IS TRANSIENT
 FLOW MODEL CONTAINS CONSTANT-HEAD CELLS


 MAXIMUM STEPSIZE DURING WHICH ANY PARTICLE CANNOT MOVE MORE THAN ONE CELL
 =  5.465    (WHEN MIN. R.F.=1)  AT K=  28, I=   1, J=  67

 MAXIMUM STEPSIZE WHICH MEETS STABILITY CRITERION OF THE ADVECTION TERM
 (FOR PURE FINITE-DIFFERENCE OPTION, MIXELM=0) 
 =  4.514    (WHEN MIN. R.F.=1)  AT K=  30, I=   1, J=  95


 TOTAL NUMBER OF POINT SOURCES/SINKS PRESENT IN THE FLOW MODEL =    62

 MAXIMUM STEPSIZE WHICH MEETS STABILITY CRITERION OF THE SINK & SOURCE TERM
 =  373.2    (WHEN MIN. R.F.=1)  AT K=   2, I=   1, J=   1

 MAXIMUM STEPSIZE WHICH MEETS STABILITY CRITERION OF THE DISPERSION TERM
 =  20.29    (WHEN MIN. R.F.=1)  AT K=   1, I=   1, J=  31
     1 CALLS TO GCG PACKAGE FOR TRANSPORT TIME STEP   2 IN FLOW TIME STEP 362 STRESS PERIOD   1
     6 TOTAL ITERATIONS
 
 SOLVING FOR HEAD 
 FLOW MODEL IS TRANSIENT
 FLOW MODEL CONTAINS CONSTANT-HEAD CELLS


 MAXIMUM STEPSIZE DURING WHICH ANY PARTICLE CANNOT MOVE MORE THAN ONE CELL
 =  5.505    (WHEN MIN. R.F.=1)  AT K=  28, I=   1, J=  67

 MAXIMUM STEPSIZE WHICH MEETS STABILITY CRITERION OF THE ADVECTION TERM
 (FOR PURE FINITE-DIFFERENCE OPTION, MIXELM=0) 
 =  4.475    (WHEN MIN. R.F.=1)  AT K=   2, I=   1, J=  76


 TOTAL NUMBER OF POINT SOURCES/SINKS PRESENT IN THE FLOW MODEL =    62

 MAXIMUM STEPSIZE WHICH MEETS STABILITY CRITERION OF THE SINK & SOURCE TERM
 =  349.3    (WHEN MIN. R.F.=1)  AT K=   2, I=   1, J=   1

 MAXIMUM STEPSIZE WHICH MEETS STABILITY CRITERION OF THE DISPERSION TERM
 =  20.29    (WHEN MIN. R.F.=1)  AT K=   1, I=   1, J=  31
     1 CALLS TO GCG PACKAGE FOR TRANSPORT TIME STEP   3 IN FLOW TIME STEP 362 STRESS PERIOD   1
     6 TOTAL ITERATIONS
 
 SOLVING FOR HEAD 
 FLOW MODEL IS TRANSIENT
 FLOW MODEL CONTAINS CONSTANT-HEAD CELLS


 MAXIMUM STEPSIZE DURING WHICH ANY PARTICLE CANNOT MOVE MORE THAN ONE CELL
 =  5.546    (WHEN MIN. R.F.=1)  AT K=  28, I=   1, J=  67

 MAXIMUM STEPSIZE WHICH MEETS STABILITY CRITERION OF THE ADVECTION TERM
 (FOR PURE FINITE-DIFFERENCE OPTION, MIXELM=0) 
 =  4.272    (WHEN MIN. R.F.=1)  AT K=   2, I=   1, J=  76


 TOTAL NUMBER OF POINT SOURCES/SINKS PRESENT IN THE FLOW MODEL =    62

 MAXIMUM STEPSIZE WHICH MEETS STABILITY CRITERION OF THE SINK & SOURCE TERM
 =  336.8    (WHEN MIN. R.F.=1)  AT K=   2, I=   1, J=   1

 MAXIMUM STEPSIZE WHICH MEETS STABILITY CRITERION OF THE DISPERSION TERM
 =  20.29    (WHEN MIN. R.F.=1)  AT K=   1, I=   1, J=  31
     1 CALLS TO GCG PACKAGE FOR TRANSPORT TIME STEP   4 IN FLOW TIME STEP 362 STRESS PERIOD   1
     4 TOTAL ITERATIONS
  MAXIMUM CONCENTRATION CHANGES FOR EACH ITERATION:
  MAX. CHANGE LAYER,ROW,COL MAX. CHANGE LAYER,ROW,COL MAX. CHANGE LAYER,ROW,COL MAX. CHANGE LAYER,ROW,COL MAX. CHANGE LAYER,ROW,COL
 ------------------------------------------------------------------------------------------------------------------------------------
   0.4815E-02 (  2,  1, 31)  0.4040E-04 (  2,  1, 76)  0.3626E-06 (  2,  1, 78)  0.3879E-08 (  3,  1, 82)


                                          ================================================
                                                         FROM TIME =   3620.0     TO    3630.0    

 
 SOLVING FOR HEAD 
 FLOW MODEL IS TRANSIENT
 FLOW MODEL CONTAINS CONSTANT-HEAD CELLS


 MAXIMUM STEPSIZE DURING WHICH ANY PARTICLE CANNOT MOVE MORE THAN ONE CELL
 =  5.554    (WHEN MIN. R.F.=1)  AT K=  28, I=   1, J=  67

 MAXIMUM STEPSIZE WHICH MEETS STABILITY CRITERION OF THE ADVECTION TERM
 (FOR PURE FINITE-DIFFERENCE OPTION, MIXELM=0) 
 =  4.263    (WHEN MIN. R.F.=1)  AT K=   2, I=   1, J=  76


 TOTAL NUMBER OF POINT SOURCES/SINKS PRESENT IN THE FLOW MODEL =    62

 MAXIMUM STEPSIZE WHICH MEETS STABILITY CRITERION OF THE SINK & SOURCE TERM
 =  381.1    (WHEN MIN. R.F.=1)  AT K=   2, I=   1, J=   1

 MAXIMUM STEPSIZE WHICH MEETS STABILITY CRITERION OF THE DISPERSION TERM
 =  20.29    (WHEN MIN. R.F.=1)  AT K=   1, I=   1, J=  31


     1 CALLS TO GCG PACKAGE FOR TRANSPORT TIME STEP   1 IN FLOW TIME STEP 363 STRESS PERIOD   1
     6 TOTAL ITERATIONS

 NO OUTPUT CONTROL FOR STRESS PERIOD    1   TIME STEP 363
 
 SOLVING FOR HEAD 
 FLOW MODEL IS TRANSIENT
 FLOW MODEL CONTAINS CONSTANT-HEAD CELLS


 MAXIMUM STEPSIZE DURING WHICH ANY PARTICLE CANNOT MOVE MORE THAN ONE CELL
 =  5.595    (WHEN MIN. R.F.=1)  AT K=  28, I=   1, J=  67

 MAXIMUM STEPSIZE WHICH MEETS STABILITY CRITERION OF THE ADVECTION TERM
 (FOR PURE FINITE-DIFFERENCE OPTION, MIXELM=0) 
 =  4.263    (WHEN MIN. R.F.=1)  AT K=   2, I=   1, J=  76


 TOTAL NUMBER OF POINT SOURCES/SINKS PRESENT IN THE FLOW MODEL =    62

 MAXIMUM STEPSIZE WHICH MEETS STABILITY CRITERION OF THE SINK & SOURCE TERM
 =  338.5    (WHEN MIN. R.F.=1)  AT K=   2, I=   1, J=   1

 MAXIMUM STEPSIZE WHICH MEETS STABILITY CRITERION OF THE DISPERSION TERM
 =  20.29    (WHEN MIN. R.F.=1)  AT K=   1, I=   1, J=  31
     1 CALLS TO GCG PACKAGE FOR TRANSPORT TIME STEP   2 IN FLOW TIME STEP 363 STRESS PERIOD   1
     6 TOTAL ITERATIONS
 
 SOLVING FOR HEAD 
 FLOW MODEL IS TRANSIENT
 FLOW MODEL CONTAINS CONSTANT-HEAD CELLS


 MAXIMUM STEPSIZE DURING WHICH ANY PARTICLE CANNOT MOVE MORE THAN ONE CELL
 =  5.637    (WHEN MIN. R.F.=1)  AT K=  28, I=   1, J=  67

 MAXIMUM STEPSIZE WHICH MEETS STABILITY CRITERION OF THE ADVECTION TERM
 (FOR PURE FINITE-DIFFERENCE OPTION, MIXELM=0) 
 =  4.442    (WHEN MIN. R.F.=1)  AT K=   2, I=   1, J=  76


 TOTAL NUMBER OF POINT SOURCES/SINKS PRESENT IN THE FLOW MODEL =    62

 MAXIMUM STEPSIZE WHICH MEETS STABILITY CRITERION OF THE SINK & SOURCE TERM
 =  311.9    (WHEN MIN. R.F.=1)  AT K=   2, I=   1, J=   1

 MAXIMUM STEPSIZE WHICH MEETS STABILITY CRITERION OF THE DISPERSION TERM
 =  20.29    (WHEN MIN. R.F.=1)  AT K=   1, I=   1, J=  31
     1 CALLS TO GCG PACKAGE FOR TRANSPORT TIME STEP   3 IN FLOW TIME STEP 363 STRESS PERIOD   1
     6 TOTAL ITERATIONS
 
 SOLVING FOR HEAD 
 FLOW MODEL IS TRANSIENT
 FLOW MODEL CONTAINS CONSTANT-HEAD CELLS


 MAXIMUM STEPSIZE DURING WHICH ANY PARTICLE CANNOT MOVE MORE THAN ONE CELL
 =  5.681    (WHEN MIN. R.F.=1)  AT K=  28, I=   1, J=  67

 MAXIMUM STEPSIZE WHICH MEETS STABILITY CRITERION OF THE ADVECTION TERM
 (FOR PURE FINITE-DIFFERENCE OPTION, MIXELM=0) 
 =  4.185    (WHEN MIN. R.F.=1)  AT K=   2, I=   1, J=  40


 TOTAL NUMBER OF POINT SOURCES/SINKS PRESENT IN THE FLOW MODEL =    62

 MAXIMUM STEPSIZE WHICH MEETS STABILITY CRITERION OF THE SINK & SOURCE TERM
 =  300.2    (WHEN MIN. R.F.=1)  AT K=   2, I=   1, J=   1

 MAXIMUM STEPSIZE WHICH MEETS STABILITY CRITERION OF THE DISPERSION TERM
 =  20.29    (WHEN MIN. R.F.=1)  AT K=   1, I=   1, J=  31
     1 CALLS TO GCG PACKAGE FOR TRANSPORT TIME STEP   4 IN FLOW TIME STEP 363 STRESS PERIOD   1
     4 TOTAL ITERATIONS
  MAXIMUM CONCENTRATION CHANGES FOR EACH ITERATION:
  MAX. CHANGE LAYER,ROW,COL MAX. CHANGE LAYER,ROW,COL MAX. CHANGE LAYER,ROW,COL MAX. CHANGE LAYER,ROW,COL MAX. CHANGE LAYER,ROW,COL
 ------------------------------------------------------------------------------------------------------------------------------------
   0.4539E-02 (  2,  1, 77)  0.2566E-04 ( 30,  1, 55)  0.2033E-06 (  2,  1, 78)  0.2268E-08 (  3,  1, 78)


                                          ================================================
                                                         FROM TIME =   3630.0     TO    3640.0    

 
 SOLVING FOR HEAD 
 FLOW MODEL IS TRANSIENT
 FLOW MODEL CONTAINS CONSTANT-HEAD CELLS


 MAXIMUM STEPSIZE DURING WHICH ANY PARTICLE CANNOT MOVE MORE THAN ONE CELL
 =  5.688    (WHEN MIN. R.F.=1)  AT K=  28, I=   1, J=  67

 MAXIMUM STEPSIZE WHICH MEETS STABILITY CRITERION OF THE ADVECTION TERM
 (FOR PURE FINITE-DIFFERENCE OPTION, MIXELM=0) 
 =  4.156    (WHEN MIN. R.F.=1)  AT K=   2, I=   1, J=  40


 TOTAL NUMBER OF POINT SOURCES/SINKS PRESENT IN THE FLOW MODEL =    62

 MAXIMUM STEPSIZE WHICH MEETS STABILITY CRITERION OF THE SINK & SOURCE TERM
 =  320.6    (WHEN MIN. R.F.=1)  AT K=   2, I=   1, J=   1

 MAXIMUM STEPSIZE WHICH MEETS STABILITY CRITERION OF THE DISPERSION TERM
 =  20.29    (WHEN MIN. R.F.=1)  AT K=   1, I=   1, J=  31


     1 CALLS TO GCG PACKAGE FOR TRANSPORT TIME STEP   1 IN FLOW TIME STEP 364 STRESS PERIOD   1
     6 TOTAL ITERATIONS

 NO OUTPUT CONTROL FOR STRESS PERIOD    1   TIME STEP 364
 
 SOLVING FOR HEAD 
 FLOW MODEL IS TRANSIENT
 FLOW MODEL CONTAINS CONSTANT-HEAD CELLS


 MAXIMUM STEPSIZE DURING WHICH ANY PARTICLE CANNOT MOVE MORE THAN ONE CELL
 =  5.418    (WHEN MIN. R.F.=1)  AT K=   4, I=   1, J=  47

 MAXIMUM STEPSIZE WHICH MEETS STABILITY CRITERION OF THE ADVECTION TERM
 (FOR PURE FINITE-DIFFERENCE OPTION, MIXELM=0) 
 =  4.041    (WHEN MIN. R.F.=1)  AT K=   2, I=   1, J=  40


 TOTAL NUMBER OF POINT SOURCES/SINKS PRESENT IN THE FLOW MODEL =    62

 MAXIMUM STEPSIZE WHICH MEETS STABILITY CRITERION OF THE SINK & SOURCE TERM
 =  290.9    (WHEN MIN. R.F.=1)  AT K=   2, I=   1, J=   1

 MAXIMUM STEPSIZE WHICH MEETS STABILITY CRITERION OF THE DISPERSION TERM
 =  20.29    (WHEN MIN. R.F.=1)  AT K=   1, I=   1, J=  31
     1 CALLS TO GCG PACKAGE FOR TRANSPORT TIME STEP   2 IN FLOW TIME STEP 364 STRESS PERIOD   1
     6 TOTAL ITERATIONS
 
 SOLVING FOR HEAD 
 FLOW MODEL IS TRANSIENT
 FLOW MODEL CONTAINS CONSTANT-HEAD CELLS


 MAXIMUM STEPSIZE DURING WHICH ANY PARTICLE CANNOT MOVE MORE THAN ONE CELL
 =  5.253    (WHEN MIN. R.F.=1)  AT K=   4, I=   1, J=  47

 MAXIMUM STEPSIZE WHICH MEETS STABILITY CRITERION OF THE ADVECTION TERM
 (FOR PURE FINITE-DIFFERENCE OPTION, MIXELM=0) 
 =  4.172    (WHEN MIN. R.F.=1)  AT K=   2, I=   1, J=  40


 TOTAL NUMBER OF POINT SOURCES/SINKS PRESENT IN THE FLOW MODEL =    62

 MAXIMUM STEPSIZE WHICH MEETS STABILITY CRITERION OF THE SINK & SOURCE TERM
 =  281.9    (WHEN MIN. R.F.=1)  AT K=   2, I=   1, J=   1

 MAXIMUM STEPSIZE WHICH MEETS STABILITY CRITERION OF THE DISPERSION TERM
 =  20.29    (WHEN MIN. R.F.=1)  AT K=   1, I=   1, J=  31
     1 CALLS TO GCG PACKAGE FOR TRANSPORT TIME STEP   3 IN FLOW TIME STEP 364 STRESS PERIOD   1
     6 TOTAL ITERATIONS
 
 SOLVING FOR HEAD 
 FLOW MODEL IS TRANSIENT
 FLOW MODEL CONTAINS CONSTANT-HEAD CELLS


 MAXIMUM STEPSIZE DURING WHICH ANY PARTICLE CANNOT MOVE MORE THAN ONE CELL
 =  5.202    (WHEN MIN. R.F.=1)  AT K=   4, I=   1, J=  47

 MAXIMUM STEPSIZE WHICH MEETS STABILITY CRITERION OF THE ADVECTION TERM
 (FOR PURE FINITE-DIFFERENCE OPTION, MIXELM=0) 
 =  4.087    (WHEN MIN. R.F.=1)  AT K=   2, I=   1, J=  41


 TOTAL NUMBER OF POINT SOURCES/SINKS PRESENT IN THE FLOW MODEL =    62

 MAXIMUM STEPSIZE WHICH MEETS STABILITY CRITERION OF THE SINK & SOURCE TERM
 =  277.2    (WHEN MIN. R.F.=1)  AT K=   2, I=   1, J=   1

 MAXIMUM STEPSIZE WHICH MEETS STABILITY CRITERION OF THE DISPERSION TERM
 =  20.29    (WHEN MIN. R.F.=1)  AT K=   1, I=   1, J=  31
     1 CALLS TO GCG PACKAGE FOR TRANSPORT TIME STEP   4 IN FLOW TIME STEP 364 STRESS PERIOD   1
     4 TOTAL ITERATIONS
  MAXIMUM CONCENTRATION CHANGES FOR EACH ITERATION:
  MAX. CHANGE LAYER,ROW,COL MAX. CHANGE LAYER,ROW,COL MAX. CHANGE LAYER,ROW,COL MAX. CHANGE LAYER,ROW,COL MAX. CHANGE LAYER,ROW,COL
 ------------------------------------------------------------------------------------------------------------------------------------
   0.8353E-02 (  2,  1, 83)  0.8633E-04 (  3,  1, 78)  0.1260E-05 (  2,  1, 77)  0.2599E-07 (  3,  1, 77)


                                          ================================================
                                                         FROM TIME =   3640.0     TO    3650.0    

 
 SOLVING FOR HEAD 
 FLOW MODEL IS TRANSIENT
 FLOW MODEL CONTAINS CONSTANT-HEAD CELLS


 MAXIMUM STEPSIZE DURING WHICH ANY PARTICLE CANNOT MOVE MORE THAN ONE CELL
 =  5.209    (WHEN MIN. R.F.=1)  AT K=   4, I=   1, J=  47

 MAXIMUM STEPSIZE WHICH MEETS STABILITY CRITERION OF THE ADVECTION TERM
 (FOR PURE FINITE-DIFFERENCE OPTION, MIXELM=0) 
 =  4.017    (WHEN MIN. R.F.=1)  AT K=   2, I=   1, J=  41


 TOTAL NUMBER OF POINT SOURCES/SINKS PRESENT IN THE FLOW MODEL =    62

 MAXIMUM STEPSIZE WHICH MEETS STABILITY CRITERION OF THE SINK & SOURCE TERM
 =  290.8    (WHEN MIN. R.F.=1)  AT K=   2, I=   1, J=   1

 MAXIMUM STEPSIZE WHICH MEETS STABILITY CRITERION OF THE DISPERSION TERM
 =  20.29    (WHEN MIN. R.F.=1)  AT K=   1, I=   1, J=  31


     1 CALLS TO GCG PACKAGE FOR TRANSPORT TIME STEP   1 IN FLOW TIME STEP 365 STRESS PERIOD   1
     6 TOTAL ITERATIONS

 NO OUTPUT CONTROL FOR STRESS PERIOD    1   TIME STEP 365
 
 SOLVING FOR HEAD 
 FLOW MODEL IS TRANSIENT
 FLOW MODEL CONTAINS CONSTANT-HEAD CELLS


 MAXIMUM STEPSIZE DURING WHICH ANY PARTICLE CANNOT MOVE MORE THAN ONE CELL
 =  5.276    (WHEN MIN. R.F.=1)  AT K=   4, I=   1, J=  47

 MAXIMUM STEPSIZE WHICH MEETS STABILITY CRITERION OF THE ADVECTION TERM
 (FOR PURE FINITE-DIFFERENCE OPTION, MIXELM=0) 
 =  3.823    (WHEN MIN. R.F.=1)  AT K=   2, I=   1, J=  41


 TOTAL NUMBER OF POINT SOURCES/SINKS PRESENT IN THE FLOW MODEL =    62

 MAXIMUM STEPSIZE WHICH MEETS STABILITY CRITERION OF THE SINK & SOURCE TERM
 =  267.0    (WHEN MIN. R.F.=1)  AT K=   2, I=   1, J=   1

 MAXIMUM STEPSIZE WHICH MEETS STABILITY CRITERION OF THE DISPERSION TERM
 =  20.29    (WHEN MIN. R.F.=1)  AT K=   1, I=   1, J=  31
     1 CALLS TO GCG PACKAGE FOR TRANSPORT TIME STEP   2 IN FLOW TIME STEP 365 STRESS PERIOD   1
     6 TOTAL ITERATIONS
 
 SOLVING FOR HEAD 
 FLOW MODEL IS TRANSIENT
 FLOW MODEL CONTAINS CONSTANT-HEAD CELLS


 MAXIMUM STEPSIZE DURING WHICH ANY PARTICLE CANNOT MOVE MORE THAN ONE CELL
 =  5.193    (WHEN MIN. R.F.=1)  AT K=   4, I=   1, J=  74

 MAXIMUM STEPSIZE WHICH MEETS STABILITY CRITERION OF THE ADVECTION TERM
 (FOR PURE FINITE-DIFFERENCE OPTION, MIXELM=0) 
 =  3.805    (WHEN MIN. R.F.=1)  AT K=   2, I=   1, J=  41


 TOTAL NUMBER OF POINT SOURCES/SINKS PRESENT IN THE FLOW MODEL =    62

 MAXIMUM STEPSIZE WHICH MEETS STABILITY CRITERION OF THE SINK & SOURCE TERM
 =  274.4    (WHEN MIN. R.F.=1)  AT K=   2, I=   1, J=   1

 MAXIMUM STEPSIZE WHICH MEETS STABILITY CRITERION OF THE DISPERSION TERM
 =  20.29    (WHEN MIN. R.F.=1)  AT K=   1, I=   1, J=  31
     1 CALLS TO GCG PACKAGE FOR TRANSPORT TIME STEP   3 IN FLOW TIME STEP 365 STRESS PERIOD   1
     6 TOTAL ITERATIONS
 
 SOLVING FOR HEAD 
 FLOW MODEL IS TRANSIENT
 FLOW MODEL CONTAINS CONSTANT-HEAD CELLS


 MAXIMUM STEPSIZE DURING WHICH ANY PARTICLE CANNOT MOVE MORE THAN ONE CELL
 =  5.064    (WHEN MIN. R.F.=1)  AT K=   4, I=   1, J=  74

 MAXIMUM STEPSIZE WHICH MEETS STABILITY CRITERION OF THE ADVECTION TERM
 (FOR PURE FINITE-DIFFERENCE OPTION, MIXELM=0) 
 =  3.944    (WHEN MIN. R.F.=1)  AT K=   2, I=   1, J=  41


 TOTAL NUMBER OF POINT SOURCES/SINKS PRESENT IN THE FLOW MODEL =    62

 MAXIMUM STEPSIZE WHICH MEETS STABILITY CRITERION OF THE SINK & SOURCE TERM
 =  277.2    (WHEN MIN. R.F.=1)  AT K=   2, I=   1, J=   1

 MAXIMUM STEPSIZE WHICH MEETS STABILITY CRITERION OF THE DISPERSION TERM
 =  20.29    (WHEN MIN. R.F.=1)  AT K=   1, I=   1, J=  31
     1 CALLS TO GCG PACKAGE FOR TRANSPORT TIME STEP   4 IN FLOW TIME STEP 365 STRESS PERIOD   1
     5 TOTAL ITERATIONS
  MAXIMUM CONCENTRATION CHANGES FOR EACH ITERATION:
  MAX. CHANGE LAYER,ROW,COL MAX. CHANGE LAYER,ROW,COL MAX. CHANGE LAYER,ROW,COL MAX. CHANGE LAYER,ROW,COL MAX. CHANGE LAYER,ROW,COL
 ------------------------------------------------------------------------------------------------------------------------------------
   0.1355E-01 (  2,  1, 82)  0.1827E-03 (  3,  1, 77)  0.5082E-05 (  3,  1, 80)  0.1062E-06 (  4,  1, 80)  0.2210E-08 (  4,  1, 79)


                                          ================================================
                                                         FROM TIME =   3650.0     TO    3660.0    

 
 SOLVING FOR HEAD 
 FLOW MODEL IS TRANSIENT
 FLOW MODEL CONTAINS CONSTANT-HEAD CELLS


 MAXIMUM STEPSIZE DURING WHICH ANY PARTICLE CANNOT MOVE MORE THAN ONE CELL
 =  5.031    (WHEN MIN. R.F.=1)  AT K=   4, I=   1, J=  74

 MAXIMUM STEPSIZE WHICH MEETS STABILITY CRITERION OF THE ADVECTION TERM
 (FOR PURE FINITE-DIFFERENCE OPTION, MIXELM=0) 
 =  4.061    (WHEN MIN. R.F.=1)  AT K=   2, I=   1, J=  41


 TOTAL NUMBER OF POINT SOURCES/SINKS PRESENT IN THE FLOW MODEL =    62

 MAXIMUM STEPSIZE WHICH MEETS STABILITY CRITERION OF THE SINK & SOURCE TERM
 =  289.7    (WHEN MIN. R.F.=1)  AT K=   2, I=   1, J=   1

 MAXIMUM STEPSIZE WHICH MEETS STABILITY CRITERION OF THE DISPERSION TERM
 =  20.29    (WHEN MIN. R.F.=1)  AT K=   1, I=   1, J=  31


     1 CALLS TO GCG PACKAGE FOR TRANSPORT TIME STEP   1 IN FLOW TIME STEP 366 STRESS PERIOD   1
     6 TOTAL ITERATIONS

 NO OUTPUT CONTROL FOR STRESS PERIOD    1   TIME STEP 366
 
 SOLVING FOR HEAD 
 FLOW MODEL IS TRANSIENT
 FLOW MODEL CONTAINS CONSTANT-HEAD CELLS


 MAXIMUM STEPSIZE DURING WHICH ANY PARTICLE CANNOT MOVE MORE THAN ONE CELL
 =  4.977    (WHEN MIN. R.F.=1)  AT K=   4, I=   1, J=  74

 MAXIMUM STEPSIZE WHICH MEETS STABILITY CRITERION OF THE ADVECTION TERM
 (FOR PURE FINITE-DIFFERENCE OPTION, MIXELM=0) 
 =  3.765    (WHEN MIN. R.F.=1)  AT K=   2, I=   1, J=  80


 TOTAL NUMBER OF POINT SOURCES/SINKS PRESENT IN THE FLOW MODEL =    62

 MAXIMUM STEPSIZE WHICH MEETS STABILITY CRITERION OF THE SINK & SOURCE TERM
 =  265.8    (WHEN MIN. R.F.=1)  AT K=   2, I=   1, J=   1

 MAXIMUM STEPSIZE WHICH MEETS STABILITY CRITERION OF THE DISPERSION TERM
 =  20.29    (WHEN MIN. R.F.=1)  AT K=   1, I=   1, J=  31
     1 CALLS TO GCG PACKAGE FOR TRANSPORT TIME STEP   2 IN FLOW TIME STEP 366 STRESS PERIOD   1
     6 TOTAL ITERATIONS
 
 SOLVING FOR HEAD 
 FLOW MODEL IS TRANSIENT
 FLOW MODEL CONTAINS CONSTANT-HEAD CELLS


 MAXIMUM STEPSIZE DURING WHICH ANY PARTICLE CANNOT MOVE MORE THAN ONE CELL
 =  4.973    (WHEN MIN. R.F.=1)  AT K=   4, I=   1, J=  74

 MAXIMUM STEPSIZE WHICH MEETS STABILITY CRITERION OF THE ADVECTION TERM
 (FOR PURE FINITE-DIFFERENCE OPTION, MIXELM=0) 
 =  3.630    (WHEN MIN. R.F.=1)  AT K=   2, I=   1, J=  80


 TOTAL NUMBER OF POINT SOURCES/SINKS PRESENT IN THE FLOW MODEL =    62

 MAXIMUM STEPSIZE WHICH MEETS STABILITY CRITERION OF THE SINK & SOURCE TERM
 =  264.5    (WHEN MIN. R.F.=1)  AT K=   2, I=   1, J=   1

 MAXIMUM STEPSIZE WHICH MEETS STABILITY CRITERION OF THE DISPERSION TERM
 =  20.29    (WHEN MIN. R.F.=1)  AT K=   1, I=   1, J=  31
     1 CALLS TO GCG PACKAGE FOR TRANSPORT TIME STEP   3 IN FLOW TIME STEP 366 STRESS PERIOD   1
     6 TOTAL ITERATIONS
 
 SOLVING FOR HEAD 
 FLOW MODEL IS TRANSIENT
 FLOW MODEL CONTAINS CONSTANT-HEAD CELLS


 MAXIMUM STEPSIZE DURING WHICH ANY PARTICLE CANNOT MOVE MORE THAN ONE CELL
 =  5.017    (WHEN MIN. R.F.=1)  AT K=   4, I=   1, J=  74

 MAXIMUM STEPSIZE WHICH MEETS STABILITY CRITERION OF THE ADVECTION TERM
 (FOR PURE FINITE-DIFFERENCE OPTION, MIXELM=0) 
 =  3.663    (WHEN MIN. R.F.=1)  AT K=   2, I=   1, J=  80


 TOTAL NUMBER OF POINT SOURCES/SINKS PRESENT IN THE FLOW MODEL =    62

 MAXIMUM STEPSIZE WHICH MEETS STABILITY CRITERION OF THE SINK & SOURCE TERM
 =  269.3    (WHEN MIN. R.F.=1)  AT K=   2, I=   1, J=   1

 MAXIMUM STEPSIZE WHICH MEETS STABILITY CRITERION OF THE DISPERSION TERM
 =  20.29    (WHEN MIN. R.F.=1)  AT K=   1, I=   1, J=  31
     1 CALLS TO GCG PACKAGE FOR TRANSPORT TIME STEP   4 IN FLOW TIME STEP 366 STRESS PERIOD   1
     5 TOTAL ITERATIONS
  MAXIMUM CONCENTRATION CHANGES FOR EACH ITERATION:
  MAX. CHANGE LAYER,ROW,COL MAX. CHANGE LAYER,ROW,COL MAX. CHANGE LAYER,ROW,COL MAX. CHANGE LAYER,ROW,COL MAX. CHANGE LAYER,ROW,COL
 ------------------------------------------------------------------------------------------------------------------------------------
   0.1477E-01 (  2,  1, 81)  0.2307E-03 (  2,  1, 81)  0.8480E-05 (  3,  1, 79)  0.2493E-06 (  3,  1, 45)  0.5146E-08 (  4,  1, 45)


                                          ================================================
                                                         FROM TIME =   3660.0     TO    3670.0    

 
 SOLVING FOR HEAD 
 FLOW MODEL IS TRANSIENT
 FLOW MODEL CONTAINS CONSTANT-HEAD CELLS


 MAXIMUM STEPSIZE DURING WHICH ANY PARTICLE CANNOT MOVE MORE THAN ONE CELL
 =  5.052    (WHEN MIN. R.F.=1)  AT K=   4, I=   1, J=  74

 MAXIMUM STEPSIZE WHICH MEETS STABILITY CRITERION OF THE ADVECTION TERM
 (FOR PURE FINITE-DIFFERENCE OPTION, MIXELM=0) 
 =  3.765    (WHEN MIN. R.F.=1)  AT K=   2, I=   1, J=  80


 TOTAL NUMBER OF POINT SOURCES/SINKS PRESENT IN THE FLOW MODEL =    62

 MAXIMUM STEPSIZE WHICH MEETS STABILITY CRITERION OF THE SINK & SOURCE TERM
 =  305.0    (WHEN MIN. R.F.=1)  AT K=   2, I=   1, J=   1

 MAXIMUM STEPSIZE WHICH MEETS STABILITY CRITERION OF THE DISPERSION TERM
 =  20.29    (WHEN MIN. R.F.=1)  AT K=   1, I=   1, J=  31


     1 CALLS TO GCG PACKAGE FOR TRANSPORT TIME STEP   1 IN FLOW TIME STEP 367 STRESS PERIOD   1
     6 TOTAL ITERATIONS

 NO OUTPUT CONTROL FOR STRESS PERIOD    1   TIME STEP 367
 
 SOLVING FOR HEAD 
 FLOW MODEL IS TRANSIENT
 FLOW MODEL CONTAINS CONSTANT-HEAD CELLS


 MAXIMUM STEPSIZE DURING WHICH ANY PARTICLE CANNOT MOVE MORE THAN ONE CELL
 =  5.107    (WHEN MIN. R.F.=1)  AT K=   5, I=   1, J=  74

 MAXIMUM STEPSIZE WHICH MEETS STABILITY CRITERION OF THE ADVECTION TERM
 (FOR PURE FINITE-DIFFERENCE OPTION, MIXELM=0) 
 =  3.922    (WHEN MIN. R.F.=1)  AT K=   2, I=   1, J=  79


 TOTAL NUMBER OF POINT SOURCES/SINKS PRESENT IN THE FLOW MODEL =    62

 MAXIMUM STEPSIZE WHICH MEETS STABILITY CRITERION OF THE SINK & SOURCE TERM
 =  290.6    (WHEN MIN. R.F.=1)  AT K=   2, I=   1, J=   1

 MAXIMUM STEPSIZE WHICH MEETS STABILITY CRITERION OF THE DISPERSION TERM
 =  20.29    (WHEN MIN. R.F.=1)  AT K=   1, I=   1, J=  31
     1 CALLS TO GCG PACKAGE FOR TRANSPORT TIME STEP   2 IN FLOW TIME STEP 367 STRESS PERIOD   1
     6 TOTAL ITERATIONS
 
 SOLVING FOR HEAD 
 FLOW MODEL IS TRANSIENT
 FLOW MODEL CONTAINS CONSTANT-HEAD CELLS


 MAXIMUM STEPSIZE DURING WHICH ANY PARTICLE CANNOT MOVE MORE THAN ONE CELL
 =  5.181    (WHEN MIN. R.F.=1)  AT K=   5, I=   1, J=  74

 MAXIMUM STEPSIZE WHICH MEETS STABILITY CRITERION OF THE ADVECTION TERM
 (FOR PURE FINITE-DIFFERENCE OPTION, MIXELM=0) 
 =  3.663    (WHEN MIN. R.F.=1)  AT K=   2, I=   1, J=  79


 TOTAL NUMBER OF POINT SOURCES/SINKS PRESENT IN THE FLOW MODEL =    62

 MAXIMUM STEPSIZE WHICH MEETS STABILITY CRITERION OF THE SINK & SOURCE TERM
 =  296.7    (WHEN MIN. R.F.=1)  AT K=   2, I=   1, J=   1

 MAXIMUM STEPSIZE WHICH MEETS STABILITY CRITERION OF THE DISPERSION TERM
 =  20.29    (WHEN MIN. R.F.=1)  AT K=   1, I=   1, J=  31
     1 CALLS TO GCG PACKAGE FOR TRANSPORT TIME STEP   3 IN FLOW TIME STEP 367 STRESS PERIOD   1
     6 TOTAL ITERATIONS
 
 SOLVING FOR HEAD 
 FLOW MODEL IS TRANSIENT
 FLOW MODEL CONTAINS CONSTANT-HEAD CELLS


 MAXIMUM STEPSIZE DURING WHICH ANY PARTICLE CANNOT MOVE MORE THAN ONE CELL
 =  5.298    (WHEN MIN. R.F.=1)  AT K=   5, I=   1, J=  74

 MAXIMUM STEPSIZE WHICH MEETS STABILITY CRITERION OF THE ADVECTION TERM
 (FOR PURE FINITE-DIFFERENCE OPTION, MIXELM=0) 
 =  3.564    (WHEN MIN. R.F.=1)  AT K=   2, I=   1, J=  79


 TOTAL NUMBER OF POINT SOURCES/SINKS PRESENT IN THE FLOW MODEL =    62

 MAXIMUM STEPSIZE WHICH MEETS STABILITY CRITERION OF THE SINK & SOURCE TERM
 =  299.6    (WHEN MIN. R.F.=1)  AT K=   2, I=   1, J=   1

 MAXIMUM STEPSIZE WHICH MEETS STABILITY CRITERION OF THE DISPERSION TERM
 =  20.29    (WHEN MIN. R.F.=1)  AT K=   1, I=   1, J=  31
     1 CALLS TO GCG PACKAGE FOR TRANSPORT TIME STEP   4 IN FLOW TIME STEP 367 STRESS PERIOD   1
     5 TOTAL ITERATIONS
  MAXIMUM CONCENTRATION CHANGES FOR EACH ITERATION:
  MAX. CHANGE LAYER,ROW,COL MAX. CHANGE LAYER,ROW,COL MAX. CHANGE LAYER,ROW,COL MAX. CHANGE LAYER,ROW,COL MAX. CHANGE LAYER,ROW,COL
 ------------------------------------------------------------------------------------------------------------------------------------
   0.1720E-01 (  2,  1, 80)  0.4119E-03 (  2,  1, 80)  0.1331E-04 (  2,  1, 76)  0.7016E-06 (  3,  1, 76)  0.1895E-07 (  4,  1, 76)


                                          ================================================
                                                         FROM TIME =   3670.0     TO    3680.0    

 
 SOLVING FOR HEAD 
 FLOW MODEL IS TRANSIENT
 FLOW MODEL CONTAINS CONSTANT-HEAD CELLS


 MAXIMUM STEPSIZE DURING WHICH ANY PARTICLE CANNOT MOVE MORE THAN ONE CELL
 =  5.379    (WHEN MIN. R.F.=1)  AT K=   5, I=   1, J=  74

 MAXIMUM STEPSIZE WHICH MEETS STABILITY CRITERION OF THE ADVECTION TERM
 (FOR PURE FINITE-DIFFERENCE OPTION, MIXELM=0) 
 =  3.582    (WHEN MIN. R.F.=1)  AT K=   2, I=   1, J=  79


 TOTAL NUMBER OF POINT SOURCES/SINKS PRESENT IN THE FLOW MODEL =    62

 MAXIMUM STEPSIZE WHICH MEETS STABILITY CRITERION OF THE SINK & SOURCE TERM
 =  317.5    (WHEN MIN. R.F.=1)  AT K=   2, I=   1, J=   1

 MAXIMUM STEPSIZE WHICH MEETS STABILITY CRITERION OF THE DISPERSION TERM
 =  20.29    (WHEN MIN. R.F.=1)  AT K=   1, I=   1, J=  31


     1 CALLS TO GCG PACKAGE FOR TRANSPORT TIME STEP   1 IN FLOW TIME STEP 368 STRESS PERIOD   1
     6 TOTAL ITERATIONS

 NO OUTPUT CONTROL FOR STRESS PERIOD    1   TIME STEP 368
 
 SOLVING FOR HEAD 
 FLOW MODEL IS TRANSIENT
 FLOW MODEL CONTAINS CONSTANT-HEAD CELLS


 MAXIMUM STEPSIZE DURING WHICH ANY PARTICLE CANNOT MOVE MORE THAN ONE CELL
 =  5.481    (WHEN MIN. R.F.=1)  AT K=   6, I=   1, J=  74

 MAXIMUM STEPSIZE WHICH MEETS STABILITY CRITERION OF THE ADVECTION TERM
 (FOR PURE FINITE-DIFFERENCE OPTION, MIXELM=0) 
 =  3.689    (WHEN MIN. R.F.=1)  AT K=   2, I=   1, J=  79


 TOTAL NUMBER OF POINT SOURCES/SINKS PRESENT IN THE FLOW MODEL =    62

 MAXIMUM STEPSIZE WHICH MEETS STABILITY CRITERION OF THE SINK & SOURCE TERM
 =  311.3    (WHEN MIN. R.F.=1)  AT K=   2, I=   1, J=   1

 MAXIMUM STEPSIZE WHICH MEETS STABILITY CRITERION OF THE DISPERSION TERM
 =  20.29    (WHEN MIN. R.F.=1)  AT K=   1, I=   1, J=  31
     1 CALLS TO GCG PACKAGE FOR TRANSPORT TIME STEP   2 IN FLOW TIME STEP 368 STRESS PERIOD   1
     6 TOTAL ITERATIONS
 
 SOLVING FOR HEAD 
 FLOW MODEL IS TRANSIENT
 FLOW MODEL CONTAINS CONSTANT-HEAD CELLS


 MAXIMUM STEPSIZE DURING WHICH ANY PARTICLE CANNOT MOVE MORE THAN ONE CELL
 =  5.606    (WHEN MIN. R.F.=1)  AT K=   6, I=   1, J=  74

 MAXIMUM STEPSIZE WHICH MEETS STABILITY CRITERION OF THE ADVECTION TERM
 (FOR PURE FINITE-DIFFERENCE OPTION, MIXELM=0) 
 =  3.882    (WHEN MIN. R.F.=1)  AT K=   2, I=   1, J=  43


 TOTAL NUMBER OF POINT SOURCES/SINKS PRESENT IN THE FLOW MODEL =    62

 MAXIMUM STEPSIZE WHICH MEETS STABILITY CRITERION OF THE SINK & SOURCE TERM
 =  328.5    (WHEN MIN. R.F.=1)  AT K=   2, I=   1, J=   1

 MAXIMUM STEPSIZE WHICH MEETS STABILITY CRITERION OF THE DISPERSION TERM
 =  20.29    (WHEN MIN. R.F.=1)  AT K=   1, I=   1, J=  31
     1 CALLS TO GCG PACKAGE FOR TRANSPORT TIME STEP   3 IN FLOW TIME STEP 368 STRESS PERIOD   1
     6 TOTAL ITERATIONS
 
 SOLVING FOR HEAD 
 FLOW MODEL IS TRANSIENT
 FLOW MODEL CONTAINS CONSTANT-HEAD CELLS


 MAXIMUM STEPSIZE DURING WHICH ANY PARTICLE CANNOT MOVE MORE THAN ONE CELL
 =  5.754    (WHEN MIN. R.F.=1)  AT K=   7, I=   1, J=  74

 MAXIMUM STEPSIZE WHICH MEETS STABILITY CRITERION OF THE ADVECTION TERM
 (FOR PURE FINITE-DIFFERENCE OPTION, MIXELM=0) 
 =  3.862    (WHEN MIN. R.F.=1)  AT K=   2, I=   1, J=  78


 TOTAL NUMBER OF POINT SOURCES/SINKS PRESENT IN THE FLOW MODEL =    62

 MAXIMUM STEPSIZE WHICH MEETS STABILITY CRITERION OF THE SINK & SOURCE TERM
 =  343.4    (WHEN MIN. R.F.=1)  AT K=   2, I=   1, J=   1

 MAXIMUM STEPSIZE WHICH MEETS STABILITY CRITERION OF THE DISPERSION TERM
 =  20.29    (WHEN MIN. R.F.=1)  AT K=   1, I=   1, J=  31
     1 CALLS TO GCG PACKAGE FOR TRANSPORT TIME STEP   4 IN FLOW TIME STEP 368 STRESS PERIOD   1
     5 TOTAL ITERATIONS
  MAXIMUM CONCENTRATION CHANGES FOR EACH ITERATION:
  MAX. CHANGE LAYER,ROW,COL MAX. CHANGE LAYER,ROW,COL MAX. CHANGE LAYER,ROW,COL MAX. CHANGE LAYER,ROW,COL MAX. CHANGE LAYER,ROW,COL
 ------------------------------------------------------------------------------------------------------------------------------------
   0.2106E-01 (  2,  1, 42)  0.6659E-03 (  2,  1, 78)  0.2124E-04 (  3,  1, 44)  0.8803E-06 (  3,  1, 41)  0.3419E-07 (  5,  1, 41)


                                          ================================================
                                                         FROM TIME =   3680.0     TO    3690.0    

 
 SOLVING FOR HEAD 
 FLOW MODEL IS TRANSIENT
 FLOW MODEL CONTAINS CONSTANT-HEAD CELLS


 MAXIMUM STEPSIZE DURING WHICH ANY PARTICLE CANNOT MOVE MORE THAN ONE CELL
 =  5.834    (WHEN MIN. R.F.=1)  AT K=   7, I=   1, J=  74

 MAXIMUM STEPSIZE WHICH MEETS STABILITY CRITERION OF THE ADVECTION TERM
 (FOR PURE FINITE-DIFFERENCE OPTION, MIXELM=0) 
 =  3.743    (WHEN MIN. R.F.=1)  AT K=   2, I=   1, J=  78


 TOTAL NUMBER OF POINT SOURCES/SINKS PRESENT IN THE FLOW MODEL =    62

 MAXIMUM STEPSIZE WHICH MEETS STABILITY CRITERION OF THE SINK & SOURCE TERM
 =  355.6    (WHEN MIN. R.F.=1)  AT K=   2, I=   1, J=   1

 MAXIMUM STEPSIZE WHICH MEETS STABILITY CRITERION OF THE DISPERSION TERM
 =  20.29    (WHEN MIN. R.F.=1)  AT K=   1, I=   1, J=  31


     1 CALLS TO GCG PACKAGE FOR TRANSPORT TIME STEP   1 IN FLOW TIME STEP 369 STRESS PERIOD   1
     6 TOTAL ITERATIONS

 NO OUTPUT CONTROL FOR STRESS PERIOD    1   TIME STEP 369
 
 SOLVING FOR HEAD 
 FLOW MODEL IS TRANSIENT
 FLOW MODEL CONTAINS CONSTANT-HEAD CELLS


 MAXIMUM STEPSIZE DURING WHICH ANY PARTICLE CANNOT MOVE MORE THAN ONE CELL
 =  5.983    (WHEN MIN. R.F.=1)  AT K=   7, I=   1, J=  74

 MAXIMUM STEPSIZE WHICH MEETS STABILITY CRITERION OF THE ADVECTION TERM
 (FOR PURE FINITE-DIFFERENCE OPTION, MIXELM=0) 
 =  3.668    (WHEN MIN. R.F.=1)  AT K=   2, I=   1, J=  78


 TOTAL NUMBER OF POINT SOURCES/SINKS PRESENT IN THE FLOW MODEL =    62

 MAXIMUM STEPSIZE WHICH MEETS STABILITY CRITERION OF THE SINK & SOURCE TERM
 =  353.0    (WHEN MIN. R.F.=1)  AT K=   2, I=   1, J=   1

 MAXIMUM STEPSIZE WHICH MEETS STABILITY CRITERION OF THE DISPERSION TERM
 =  20.29    (WHEN MIN. R.F.=1)  AT K=   1, I=   1, J=  31
     1 CALLS TO GCG PACKAGE FOR TRANSPORT TIME STEP   2 IN FLOW TIME STEP 369 STRESS PERIOD   1
     6 TOTAL ITERATIONS
 
 SOLVING FOR HEAD 
 FLOW MODEL IS TRANSIENT
 FLOW MODEL CONTAINS CONSTANT-HEAD CELLS


 MAXIMUM STEPSIZE DURING WHICH ANY PARTICLE CANNOT MOVE MORE THAN ONE CELL
 =  6.129    (WHEN MIN. R.F.=1)  AT K=   8, I=   1, J=  74

 MAXIMUM STEPSIZE WHICH MEETS STABILITY CRITERION OF THE ADVECTION TERM
 (FOR PURE FINITE-DIFFERENCE OPTION, MIXELM=0) 
 =  3.717    (WHEN MIN. R.F.=1)  AT K=   2, I=   1, J=  78


 TOTAL NUMBER OF POINT SOURCES/SINKS PRESENT IN THE FLOW MODEL =    62

 MAXIMUM STEPSIZE WHICH MEETS STABILITY CRITERION OF THE SINK & SOURCE TERM
 =  367.9    (WHEN MIN. R.F.=1)  AT K=   2, I=   1, J=   1

 MAXIMUM STEPSIZE WHICH MEETS STABILITY CRITERION OF THE DISPERSION TERM
 =  20.29    (WHEN MIN. R.F.=1)  AT K=   1, I=   1, J=  31
     1 CALLS TO GCG PACKAGE FOR TRANSPORT TIME STEP   3 IN FLOW TIME STEP 369 STRESS PERIOD   1
     6 TOTAL ITERATIONS
 
 SOLVING FOR HEAD 
 FLOW MODEL IS TRANSIENT
 FLOW MODEL CONTAINS CONSTANT-HEAD CELLS


 MAXIMUM STEPSIZE DURING WHICH ANY PARTICLE CANNOT MOVE MORE THAN ONE CELL
 =  6.260    (WHEN MIN. R.F.=1)  AT K=   8, I=   1, J=  74

 MAXIMUM STEPSIZE WHICH MEETS STABILITY CRITERION OF THE ADVECTION TERM
 (FOR PURE FINITE-DIFFERENCE OPTION, MIXELM=0) 
 =  3.901    (WHEN MIN. R.F.=1)  AT K=   2, I=   1, J=  78


 TOTAL NUMBER OF POINT SOURCES/SINKS PRESENT IN THE FLOW MODEL =    62

 MAXIMUM STEPSIZE WHICH MEETS STABILITY CRITERION OF THE SINK & SOURCE TERM
 =  382.4    (WHEN MIN. R.F.=1)  AT K=   2, I=   1, J=   1

 MAXIMUM STEPSIZE WHICH MEETS STABILITY CRITERION OF THE DISPERSION TERM
 =  20.29    (WHEN MIN. R.F.=1)  AT K=   1, I=   1, J=  31
     1 CALLS TO GCG PACKAGE FOR TRANSPORT TIME STEP   4 IN FLOW TIME STEP 369 STRESS PERIOD   1
     5 TOTAL ITERATIONS
  MAXIMUM CONCENTRATION CHANGES FOR EACH ITERATION:
  MAX. CHANGE LAYER,ROW,COL MAX. CHANGE LAYER,ROW,COL MAX. CHANGE LAYER,ROW,COL MAX. CHANGE LAYER,ROW,COL MAX. CHANGE LAYER,ROW,COL
 ------------------------------------------------------------------------------------------------------------------------------------
   0.1942E-01 (  2,  1, 79)  0.4486E-03 (  2,  1, 77)  0.1477E-04 (  3,  1, 77)  0.4878E-06 (  3,  1, 80)  0.1499E-07 (  5,  1, 80)


                                          ================================================
                                                         FROM TIME =   3690.0     TO    3700.0    

 
 SOLVING FOR HEAD 
 FLOW MODEL IS TRANSIENT
 FLOW MODEL CONTAINS CONSTANT-HEAD CELLS


 MAXIMUM STEPSIZE DURING WHICH ANY PARTICLE CANNOT MOVE MORE THAN ONE CELL
 =  6.346    (WHEN MIN. R.F.=1)  AT K=   8, I=   1, J=  74

 MAXIMUM STEPSIZE WHICH MEETS STABILITY CRITERION OF THE ADVECTION TERM
 (FOR PURE FINITE-DIFFERENCE OPTION, MIXELM=0) 
 =  4.017    (WHEN MIN. R.F.=1)  AT K=   2, I=   1, J=  44


 TOTAL NUMBER OF POINT SOURCES/SINKS PRESENT IN THE FLOW MODEL =    62

 MAXIMUM STEPSIZE WHICH MEETS STABILITY CRITERION OF THE SINK & SOURCE TERM
 =  408.6    (WHEN MIN. R.F.=1)  AT K=   2, I=   1, J=   1

 MAXIMUM STEPSIZE WHICH MEETS STABILITY CRITERION OF THE DISPERSION TERM
 =  20.29    (WHEN MIN. R.F.=1)  AT K=   1, I=   1, J=  31


     1 CALLS TO GCG PACKAGE FOR TRANSPORT TIME STEP   1 IN FLOW TIME STEP 370 STRESS PERIOD   1
     6 TOTAL ITERATIONS

 NO OUTPUT CONTROL FOR STRESS PERIOD    1   TIME STEP 370
 
 SOLVING FOR HEAD 
 FLOW MODEL IS TRANSIENT
 FLOW MODEL CONTAINS CONSTANT-HEAD CELLS


 MAXIMUM STEPSIZE DURING WHICH ANY PARTICLE CANNOT MOVE MORE THAN ONE CELL
 =  6.364    (WHEN MIN. R.F.=1)  AT K=  27, I=   1, J=  54

 MAXIMUM STEPSIZE WHICH MEETS STABILITY CRITERION OF THE ADVECTION TERM
 (FOR PURE FINITE-DIFFERENCE OPTION, MIXELM=0) 
 =  4.095    (WHEN MIN. R.F.=1)  AT K=   2, I=   1, J=  77


 TOTAL NUMBER OF POINT SOURCES/SINKS PRESENT IN THE FLOW MODEL =    62

 MAXIMUM STEPSIZE WHICH MEETS STABILITY CRITERION OF THE SINK & SOURCE TERM
 =  411.8    (WHEN MIN. R.F.=1)  AT K=   2, I=   1, J=   1

 MAXIMUM STEPSIZE WHICH MEETS STABILITY CRITERION OF THE DISPERSION TERM
 =  20.29    (WHEN MIN. R.F.=1)  AT K=   1, I=   1, J=  31
     1 CALLS TO GCG PACKAGE FOR TRANSPORT TIME STEP   2 IN FLOW TIME STEP 370 STRESS PERIOD   1
     6 TOTAL ITERATIONS
 
 SOLVING FOR HEAD 
 FLOW MODEL IS TRANSIENT
 FLOW MODEL CONTAINS CONSTANT-HEAD CELLS


 MAXIMUM STEPSIZE DURING WHICH ANY PARTICLE CANNOT MOVE MORE THAN ONE CELL
 =  6.367    (WHEN MIN. R.F.=1)  AT K=  27, I=   1, J=  54

 MAXIMUM STEPSIZE WHICH MEETS STABILITY CRITERION OF THE ADVECTION TERM
 (FOR PURE FINITE-DIFFERENCE OPTION, MIXELM=0) 
 =  3.892    (WHEN MIN. R.F.=1)  AT K=   2, I=   1, J=  77


 TOTAL NUMBER OF POINT SOURCES/SINKS PRESENT IN THE FLOW MODEL =    62

 MAXIMUM STEPSIZE WHICH MEETS STABILITY CRITERION OF THE SINK & SOURCE TERM
 =  423.8    (WHEN MIN. R.F.=1)  AT K=   2, I=   1, J=   1

 MAXIMUM STEPSIZE WHICH MEETS STABILITY CRITERION OF THE DISPERSION TERM
 =  20.29    (WHEN MIN. R.F.=1)  AT K=   1, I=   1, J=  31
     1 CALLS TO GCG PACKAGE FOR TRANSPORT TIME STEP   3 IN FLOW TIME STEP 370 STRESS PERIOD   1
     6 TOTAL ITERATIONS
 
 SOLVING FOR HEAD 
 FLOW MODEL IS TRANSIENT
 FLOW MODEL CONTAINS CONSTANT-HEAD CELLS


 MAXIMUM STEPSIZE DURING WHICH ANY PARTICLE CANNOT MOVE MORE THAN ONE CELL
 =  6.371    (WHEN MIN. R.F.=1)  AT K=  27, I=   1, J=  54

 MAXIMUM STEPSIZE WHICH MEETS STABILITY CRITERION OF THE ADVECTION TERM
 (FOR PURE FINITE-DIFFERENCE OPTION, MIXELM=0) 
 =  3.841    (WHEN MIN. R.F.=1)  AT K=   2, I=   1, J=  77


 TOTAL NUMBER OF POINT SOURCES/SINKS PRESENT IN THE FLOW MODEL =    62

 MAXIMUM STEPSIZE WHICH MEETS STABILITY CRITERION OF THE SINK & SOURCE TERM
 =  438.0    (WHEN MIN. R.F.=1)  AT K=   2, I=   1, J=   1

 MAXIMUM STEPSIZE WHICH MEETS STABILITY CRITERION OF THE DISPERSION TERM
 =  20.29    (WHEN MIN. R.F.=1)  AT K=   1, I=   1, J=  31
     1 CALLS TO GCG PACKAGE FOR TRANSPORT TIME STEP   4 IN FLOW TIME STEP 370 STRESS PERIOD   1
     4 TOTAL ITERATIONS
  MAXIMUM CONCENTRATION CHANGES FOR EACH ITERATION:
  MAX. CHANGE LAYER,ROW,COL MAX. CHANGE LAYER,ROW,COL MAX. CHANGE LAYER,ROW,COL MAX. CHANGE LAYER,ROW,COL MAX. CHANGE LAYER,ROW,COL
 ------------------------------------------------------------------------------------------------------------------------------------
   0.1075E-01 (  2,  1, 78)  0.1788E-03 (  2,  1, 78)  0.3637E-05 (  2,  1, 79)  0.8204E-07 (  3,  1, 79)


                                          ================================================
                                                         FROM TIME =   3700.0     TO    3710.0    

 
 SOLVING FOR HEAD 
 FLOW MODEL IS TRANSIENT
 FLOW MODEL CONTAINS CONSTANT-HEAD CELLS


 MAXIMUM STEPSIZE DURING WHICH ANY PARTICLE CANNOT MOVE MORE THAN ONE CELL
 =  6.375    (WHEN MIN. R.F.=1)  AT K=  27, I=   1, J=  54

 MAXIMUM STEPSIZE WHICH MEETS STABILITY CRITERION OF THE ADVECTION TERM
 (FOR PURE FINITE-DIFFERENCE OPTION, MIXELM=0) 
 =  3.858    (WHEN MIN. R.F.=1)  AT K=   2, I=   1, J=  77


 TOTAL NUMBER OF POINT SOURCES/SINKS PRESENT IN THE FLOW MODEL =    62

 MAXIMUM STEPSIZE WHICH MEETS STABILITY CRITERION OF THE SINK & SOURCE TERM
 =  481.8    (WHEN MIN. R.F.=1)  AT K=   2, I=   1, J=   1

 MAXIMUM STEPSIZE WHICH MEETS STABILITY CRITERION OF THE DISPERSION TERM
 =  20.29    (WHEN MIN. R.F.=1)  AT K=   1, I=   1, J=  31


     1 CALLS TO GCG PACKAGE FOR TRANSPORT TIME STEP   1 IN FLOW TIME STEP 371 STRESS PERIOD   1
     6 TOTAL ITERATIONS

 NO OUTPUT CONTROL FOR STRESS PERIOD    1   TIME STEP 371
 
 SOLVING FOR HEAD 
 FLOW MODEL IS TRANSIENT
 FLOW MODEL CONTAINS CONSTANT-HEAD CELLS


 MAXIMUM STEPSIZE DURING WHICH ANY PARTICLE CANNOT MOVE MORE THAN ONE CELL
 =  6.380    (WHEN MIN. R.F.=1)  AT K=  27, I=   1, J=  54

 MAXIMUM STEPSIZE WHICH MEETS STABILITY CRITERION OF THE ADVECTION TERM
 (FOR PURE FINITE-DIFFERENCE OPTION, MIXELM=0) 
 =  3.960    (WHEN MIN. R.F.=1)  AT K=   2, I=   1, J=  77


 TOTAL NUMBER OF POINT SOURCES/SINKS PRESENT IN THE FLOW MODEL =    62

 MAXIMUM STEPSIZE WHICH MEETS STABILITY CRITERION OF THE SINK & SOURCE TERM
 =  453.8    (WHEN MIN. R.F.=1)  AT K=   2, I=   1, J=   1

 MAXIMUM STEPSIZE WHICH MEETS STABILITY CRITERION OF THE DISPERSION TERM
 =  20.29    (WHEN MIN. R.F.=1)  AT K=   1, I=   1, J=  31
     1 CALLS TO GCG PACKAGE FOR TRANSPORT TIME STEP   2 IN FLOW TIME STEP 371 STRESS PERIOD   1
     6 TOTAL ITERATIONS
 
 SOLVING FOR HEAD 
 FLOW MODEL IS TRANSIENT
 FLOW MODEL CONTAINS CONSTANT-HEAD CELLS


 MAXIMUM STEPSIZE DURING WHICH ANY PARTICLE CANNOT MOVE MORE THAN ONE CELL
 =  6.385    (WHEN MIN. R.F.=1)  AT K=  27, I=   1, J=  54

 MAXIMUM STEPSIZE WHICH MEETS STABILITY CRITERION OF THE ADVECTION TERM
 (FOR PURE FINITE-DIFFERENCE OPTION, MIXELM=0) 
 =  4.222    (WHEN MIN. R.F.=1)  AT K=   2, I=   1, J=  77


 TOTAL NUMBER OF POINT SOURCES/SINKS PRESENT IN THE FLOW MODEL =    62

 MAXIMUM STEPSIZE WHICH MEETS STABILITY CRITERION OF THE SINK & SOURCE TERM
 =  462.7    (WHEN MIN. R.F.=1)  AT K=   2, I=   1, J=   1

 MAXIMUM STEPSIZE WHICH MEETS STABILITY CRITERION OF THE DISPERSION TERM
 =  20.29    (WHEN MIN. R.F.=1)  AT K=   1, I=   1, J=  31
     1 CALLS TO GCG PACKAGE FOR TRANSPORT TIME STEP   3 IN FLOW TIME STEP 371 STRESS PERIOD   1
     6 TOTAL ITERATIONS
 
 SOLVING FOR HEAD 
 FLOW MODEL IS TRANSIENT
 FLOW MODEL CONTAINS CONSTANT-HEAD CELLS


 MAXIMUM STEPSIZE DURING WHICH ANY PARTICLE CANNOT MOVE MORE THAN ONE CELL
 =  6.390    (WHEN MIN. R.F.=1)  AT K=  27, I=   1, J=  54

 MAXIMUM STEPSIZE WHICH MEETS STABILITY CRITERION OF THE ADVECTION TERM
 (FOR PURE FINITE-DIFFERENCE OPTION, MIXELM=0) 
 =  4.470    (WHEN MIN. R.F.=1)  AT K=   2, I=   1, J=  45


 TOTAL NUMBER OF POINT SOURCES/SINKS PRESENT IN THE FLOW MODEL =    62

 MAXIMUM STEPSIZE WHICH MEETS STABILITY CRITERION OF THE SINK & SOURCE TERM
 =  483.1    (WHEN MIN. R.F.=1)  AT K=   2, I=   1, J=   1

 MAXIMUM STEPSIZE WHICH MEETS STABILITY CRITERION OF THE DISPERSION TERM
 =  20.29    (WHEN MIN. R.F.=1)  AT K=   1, I=   1, J=  31
     1 CALLS TO GCG PACKAGE FOR TRANSPORT TIME STEP   4 IN FLOW TIME STEP 371 STRESS PERIOD   1
     5 TOTAL ITERATIONS
  MAXIMUM CONCENTRATION CHANGES FOR EACH ITERATION:
  MAX. CHANGE LAYER,ROW,COL MAX. CHANGE LAYER,ROW,COL MAX. CHANGE LAYER,ROW,COL MAX. CHANGE LAYER,ROW,COL MAX. CHANGE LAYER,ROW,COL
 ------------------------------------------------------------------------------------------------------------------------------------
   0.1351E-01 (  2,  1, 31)  0.3085E-03 (  2,  1, 76)  0.6775E-05 (  2,  1, 43)  0.2259E-06 (  3,  1, 43)  0.5598E-08 (  4,  1, 75)


                                          ================================================
                                                         FROM TIME =   3710.0     TO    3720.0    

 
 SOLVING FOR HEAD 
 FLOW MODEL IS TRANSIENT
 FLOW MODEL CONTAINS CONSTANT-HEAD CELLS


 MAXIMUM STEPSIZE DURING WHICH ANY PARTICLE CANNOT MOVE MORE THAN ONE CELL
 =  6.396    (WHEN MIN. R.F.=1)  AT K=  27, I=   1, J=  54

 MAXIMUM STEPSIZE WHICH MEETS STABILITY CRITERION OF THE ADVECTION TERM
 (FOR PURE FINITE-DIFFERENCE OPTION, MIXELM=0) 
 =  4.588    (WHEN MIN. R.F.=1)  AT K=   2, I=   1, J=  45


 TOTAL NUMBER OF POINT SOURCES/SINKS PRESENT IN THE FLOW MODEL =    62

 MAXIMUM STEPSIZE WHICH MEETS STABILITY CRITERION OF THE SINK & SOURCE TERM
 =  511.4    (WHEN MIN. R.F.=1)  AT K=   2, I=   1, J=   1

 MAXIMUM STEPSIZE WHICH MEETS STABILITY CRITERION OF THE DISPERSION TERM
 =  20.29    (WHEN MIN. R.F.=1)  AT K=   1, I=   1, J=  31


     1 CALLS TO GCG PACKAGE FOR TRANSPORT TIME STEP   1 IN FLOW TIME STEP 372 STRESS PERIOD   1
     6 TOTAL ITERATIONS

 NO OUTPUT CONTROL FOR STRESS PERIOD    1   TIME STEP 372
 
 SOLVING FOR HEAD 
 FLOW MODEL IS TRANSIENT
 FLOW MODEL CONTAINS CONSTANT-HEAD CELLS


 MAXIMUM STEPSIZE DURING WHICH ANY PARTICLE CANNOT MOVE MORE THAN ONE CELL
 =  6.403    (WHEN MIN. R.F.=1)  AT K=  27, I=   1, J=  54

 MAXIMUM STEPSIZE WHICH MEETS STABILITY CRITERION OF THE ADVECTION TERM
 (FOR PURE FINITE-DIFFERENCE OPTION, MIXELM=0) 
 =  4.375    (WHEN MIN. R.F.=1)  AT K=   2, I=   1, J=  76


 TOTAL NUMBER OF POINT SOURCES/SINKS PRESENT IN THE FLOW MODEL =    62

 MAXIMUM STEPSIZE WHICH MEETS STABILITY CRITERION OF THE SINK & SOURCE TERM
 =  484.1    (WHEN MIN. R.F.=1)  AT K=   2, I=   1, J=   1

 MAXIMUM STEPSIZE WHICH MEETS STABILITY CRITERION OF THE DISPERSION TERM
 =  20.29    (WHEN MIN. R.F.=1)  AT K=   1, I=   1, J=  31
     1 CALLS TO GCG PACKAGE FOR TRANSPORT TIME STEP   2 IN FLOW TIME STEP 372 STRESS PERIOD   1
     6 TOTAL ITERATIONS
 
 SOLVING FOR HEAD 
 FLOW MODEL IS TRANSIENT
 FLOW MODEL CONTAINS CONSTANT-HEAD CELLS


 MAXIMUM STEPSIZE DURING WHICH ANY PARTICLE CANNOT MOVE MORE THAN ONE CELL
 =  6.412    (WHEN MIN. R.F.=1)  AT K=  27, I=   1, J=  54

 MAXIMUM STEPSIZE WHICH MEETS STABILITY CRITERION OF THE ADVECTION TERM
 (FOR PURE FINITE-DIFFERENCE OPTION, MIXELM=0) 
 =  4.271    (WHEN MIN. R.F.=1)  AT K=   2, I=   1, J=  76


 TOTAL NUMBER OF POINT SOURCES/SINKS PRESENT IN THE FLOW MODEL =    62

 MAXIMUM STEPSIZE WHICH MEETS STABILITY CRITERION OF THE SINK & SOURCE TERM
 =  497.7    (WHEN MIN. R.F.=1)  AT K=   2, I=   1, J=   1

 MAXIMUM STEPSIZE WHICH MEETS STABILITY CRITERION OF THE DISPERSION TERM
 =  20.29    (WHEN MIN. R.F.=1)  AT K=   1, I=   1, J=  31
     1 CALLS TO GCG PACKAGE FOR TRANSPORT TIME STEP   3 IN FLOW TIME STEP 372 STRESS PERIOD   1
     6 TOTAL ITERATIONS
  MAXIMUM CONCENTRATION CHANGES FOR EACH ITERATION:
  MAX. CHANGE LAYER,ROW,COL MAX. CHANGE LAYER,ROW,COL MAX. CHANGE LAYER,ROW,COL MAX. CHANGE LAYER,ROW,COL MAX. CHANGE LAYER,ROW,COL
 ------------------------------------------------------------------------------------------------------------------------------------
   0.3852E-01 (  2,  1, 77)  0.1706E-02 (  2,  1, 77)  0.1216E-03 (  2,  1, 78)  0.8321E-05 (  3,  1, 78)  0.4177E-06 (  4,  1, 40)
   0.2675E-07 (  4,  1, 77)


                                          ================================================
                                                         FROM TIME =   3720.0     TO    3730.0    

 
 SOLVING FOR HEAD 
 FLOW MODEL IS TRANSIENT
 FLOW MODEL CONTAINS CONSTANT-HEAD CELLS


 MAXIMUM STEPSIZE DURING WHICH ANY PARTICLE CANNOT MOVE MORE THAN ONE CELL
 =  6.426    (WHEN MIN. R.F.=1)  AT K=  27, I=   1, J=  54

 MAXIMUM STEPSIZE WHICH MEETS STABILITY CRITERION OF THE ADVECTION TERM
 (FOR PURE FINITE-DIFFERENCE OPTION, MIXELM=0) 
 =  4.330    (WHEN MIN. R.F.=1)  AT K=   2, I=   1, J=  76


 TOTAL NUMBER OF POINT SOURCES/SINKS PRESENT IN THE FLOW MODEL =    62

 MAXIMUM STEPSIZE WHICH MEETS STABILITY CRITERION OF THE SINK & SOURCE TERM
 =  530.0    (WHEN MIN. R.F.=1)  AT K=   2, I=   1, J=   1

 MAXIMUM STEPSIZE WHICH MEETS STABILITY CRITERION OF THE DISPERSION TERM
 =  20.29    (WHEN MIN. R.F.=1)  AT K=   1, I=   1, J=  31


     1 CALLS TO GCG PACKAGE FOR TRANSPORT TIME STEP   1 IN FLOW TIME STEP 373 STRESS PERIOD   1
     6 TOTAL ITERATIONS

 NO OUTPUT CONTROL FOR STRESS PERIOD    1   TIME STEP 373
 
 SOLVING FOR HEAD 
 FLOW MODEL IS TRANSIENT
 FLOW MODEL CONTAINS CONSTANT-HEAD CELLS


 MAXIMUM STEPSIZE DURING WHICH ANY PARTICLE CANNOT MOVE MORE THAN ONE CELL
 =  6.387    (WHEN MIN. R.F.=1)  AT K=   3, I=   1, J=  47

 MAXIMUM STEPSIZE WHICH MEETS STABILITY CRITERION OF THE ADVECTION TERM
 (FOR PURE FINITE-DIFFERENCE OPTION, MIXELM=0) 
 =  4.591    (WHEN MIN. R.F.=1)  AT K=  30, I=   1, J=  23


 TOTAL NUMBER OF POINT SOURCES/SINKS PRESENT IN THE FLOW MODEL =    62

 MAXIMUM STEPSIZE WHICH MEETS STABILITY CRITERION OF THE SINK & SOURCE TERM
 =  546.7    (WHEN MIN. R.F.=1)  AT K=   2, I=   1, J=   1

 MAXIMUM STEPSIZE WHICH MEETS STABILITY CRITERION OF THE DISPERSION TERM
 =  20.29    (WHEN MIN. R.F.=1)  AT K=   1, I=   1, J=  31
     1 CALLS TO GCG PACKAGE FOR TRANSPORT TIME STEP   2 IN FLOW TIME STEP 373 STRESS PERIOD   1
     6 TOTAL ITERATIONS
 
 SOLVING FOR HEAD 
 FLOW MODEL IS TRANSIENT
 FLOW MODEL CONTAINS CONSTANT-HEAD CELLS


 MAXIMUM STEPSIZE DURING WHICH ANY PARTICLE CANNOT MOVE MORE THAN ONE CELL
 =  5.941    (WHEN MIN. R.F.=1)  AT K=   4, I=   1, J=  47

 MAXIMUM STEPSIZE WHICH MEETS STABILITY CRITERION OF THE ADVECTION TERM
 (FOR PURE FINITE-DIFFERENCE OPTION, MIXELM=0) 
 =  4.416    (WHEN MIN. R.F.=1)  AT K=   2, I=   1, J=  40


 TOTAL NUMBER OF POINT SOURCES/SINKS PRESENT IN THE FLOW MODEL =    62

 MAXIMUM STEPSIZE WHICH MEETS STABILITY CRITERION OF THE SINK & SOURCE TERM
 =  577.1    (WHEN MIN. R.F.=1)  AT K=   2, I=   1, J=   1

 MAXIMUM STEPSIZE WHICH MEETS STABILITY CRITERION OF THE DISPERSION TERM
 =  20.29    (WHEN MIN. R.F.=1)  AT K=   1, I=   1, J=  31
     1 CALLS TO GCG PACKAGE FOR TRANSPORT TIME STEP   3 IN FLOW TIME STEP 373 STRESS PERIOD   1
     6 TOTAL ITERATIONS
 
 SOLVING FOR HEAD 
 FLOW MODEL IS TRANSIENT
 FLOW MODEL CONTAINS CONSTANT-HEAD CELLS


 MAXIMUM STEPSIZE DURING WHICH ANY PARTICLE CANNOT MOVE MORE THAN ONE CELL
 =  5.544    (WHEN MIN. R.F.=1)  AT K=   4, I=   1, J=  47

 MAXIMUM STEPSIZE WHICH MEETS STABILITY CRITERION OF THE ADVECTION TERM
 (FOR PURE FINITE-DIFFERENCE OPTION, MIXELM=0) 
 =  4.121    (WHEN MIN. R.F.=1)  AT K=   2, I=   1, J=  40


 TOTAL NUMBER OF POINT SOURCES/SINKS PRESENT IN THE FLOW MODEL =    62

 MAXIMUM STEPSIZE WHICH MEETS STABILITY CRITERION OF THE SINK & SOURCE TERM
 =  643.5    (WHEN MIN. R.F.=1)  AT K=   2, I=   1, J=   1

 MAXIMUM STEPSIZE WHICH MEETS STABILITY CRITERION OF THE DISPERSION TERM
 =  20.29    (WHEN MIN. R.F.=1)  AT K=   1, I=   1, J=  31
     1 CALLS TO GCG PACKAGE FOR TRANSPORT TIME STEP   4 IN FLOW TIME STEP 373 STRESS PERIOD   1
     3 TOTAL ITERATIONS
  MAXIMUM CONCENTRATION CHANGES FOR EACH ITERATION:
  MAX. CHANGE LAYER,ROW,COL MAX. CHANGE LAYER,ROW,COL MAX. CHANGE LAYER,ROW,COL MAX. CHANGE LAYER,ROW,COL MAX. CHANGE LAYER,ROW,COL
 ------------------------------------------------------------------------------------------------------------------------------------
   0.1220E-02 (  2,  1, 83)  0.2471E-05 (  2,  1, 83)  0.4908E-08 (  2,  1, 84)


                                          ================================================
                                                         FROM TIME =   3730.0     TO    3740.0    

 
 SOLVING FOR HEAD 
 FLOW MODEL IS TRANSIENT
 FLOW MODEL CONTAINS CONSTANT-HEAD CELLS


 MAXIMUM STEPSIZE DURING WHICH ANY PARTICLE CANNOT MOVE MORE THAN ONE CELL
 =  5.535    (WHEN MIN. R.F.=1)  AT K=   4, I=   1, J=  47

 MAXIMUM STEPSIZE WHICH MEETS STABILITY CRITERION OF THE ADVECTION TERM
 (FOR PURE FINITE-DIFFERENCE OPTION, MIXELM=0) 
 =  4.116    (WHEN MIN. R.F.=1)  AT K=   2, I=   1, J=  40


 TOTAL NUMBER OF POINT SOURCES/SINKS PRESENT IN THE FLOW MODEL =    62

 MAXIMUM STEPSIZE WHICH MEETS STABILITY CRITERION OF THE SINK & SOURCE TERM
 =  747.6    (WHEN MIN. R.F.=1)  AT K=   2, I=   1, J=   1

 MAXIMUM STEPSIZE WHICH MEETS STABILITY CRITERION OF THE DISPERSION TERM
 =  20.29    (WHEN MIN. R.F.=1)  AT K=   1, I=   1, J=  31


     1 CALLS TO GCG PACKAGE FOR TRANSPORT TIME STEP   1 IN FLOW TIME STEP 374 STRESS PERIOD   1
     6 TOTAL ITERATIONS

 NO OUTPUT CONTROL FOR STRESS PERIOD    1   TIME STEP 374
 
 SOLVING FOR HEAD 
 FLOW MODEL IS TRANSIENT
 FLOW MODEL CONTAINS CONSTANT-HEAD CELLS


 MAXIMUM STEPSIZE DURING WHICH ANY PARTICLE CANNOT MOVE MORE THAN ONE CELL
 =  5.322    (WHEN MIN. R.F.=1)  AT K=   4, I=   1, J=  47

 MAXIMUM STEPSIZE WHICH MEETS STABILITY CRITERION OF THE ADVECTION TERM
 (FOR PURE FINITE-DIFFERENCE OPTION, MIXELM=0) 
 =  4.078    (WHEN MIN. R.F.=1)  AT K=   2, I=   1, J=  40


 TOTAL NUMBER OF POINT SOURCES/SINKS PRESENT IN THE FLOW MODEL =    62

 MAXIMUM STEPSIZE WHICH MEETS STABILITY CRITERION OF THE SINK & SOURCE TERM
 =  698.6    (WHEN MIN. R.F.=1)  AT K=   2, I=   1, J=   1

 MAXIMUM STEPSIZE WHICH MEETS STABILITY CRITERION OF THE DISPERSION TERM
 =  20.29    (WHEN MIN. R.F.=1)  AT K=   1, I=   1, J=  31
     1 CALLS TO GCG PACKAGE FOR TRANSPORT TIME STEP   2 IN FLOW TIME STEP 374 STRESS PERIOD   1
     6 TOTAL ITERATIONS
 
 SOLVING FOR HEAD 
 FLOW MODEL IS TRANSIENT
 FLOW MODEL CONTAINS CONSTANT-HEAD CELLS


 MAXIMUM STEPSIZE DURING WHICH ANY PARTICLE CANNOT MOVE MORE THAN ONE CELL
 =  5.223    (WHEN MIN. R.F.=1)  AT K=   4, I=   1, J=  47

 MAXIMUM STEPSIZE WHICH MEETS STABILITY CRITERION OF THE ADVECTION TERM
 (FOR PURE FINITE-DIFFERENCE OPTION, MIXELM=0) 
 =  4.215    (WHEN MIN. R.F.=1)  AT K=   2, I=   1, J=  47


 TOTAL NUMBER OF POINT SOURCES/SINKS PRESENT IN THE FLOW MODEL =    62

 MAXIMUM STEPSIZE WHICH MEETS STABILITY CRITERION OF THE SINK & SOURCE TERM
 =  695.7    (WHEN MIN. R.F.=1)  AT K=   2, I=   1, J=   1

 MAXIMUM STEPSIZE WHICH MEETS STABILITY CRITERION OF THE DISPERSION TERM
 =  20.29    (WHEN MIN. R.F.=1)  AT K=   1, I=   1, J=  31
     1 CALLS TO GCG PACKAGE FOR TRANSPORT TIME STEP   3 IN FLOW TIME STEP 374 STRESS PERIOD   1
     6 TOTAL ITERATIONS



 >>>>>>>>>>>>>>>>>>>>>>>>>>>>>>>>>>>>>>>>>>>>>>>>>>>>>>>FOR COMPONENT NO. 01<<<<<<<<<<<<<<<<<<<<<<<<<<<<<<<<<<<<<<<<<<<<<<<<<<<<<<<


                                            -------------------------------------------
                                                      TRANSPORT STEP NO.    3
                                            -------------------------------------------

 TOTAL ELAPSED TIME SINCE BEGINNING OF SIMULATION =   3738.600    D   
 .....................................................................

                     CUMULATIVE MASS BUDGETS AT END OF TRANSPORT STEP    3, TIME STEP  374, STRESS PERIOD    1
                     ------------------------------------------------------------------------------------------

                                                             IN                           OUT
                                                      ----------------             ----------------
                               CONSTANT CONCENTRATION:    2352772.                   -1435656.    
                                        CONSTANT HEAD:    0.000000                   -202.1212    
                               MASS STOR (FLOW MODEL):    256.2303                   -447.0143    
                                MASS STORAGE (SOLUTE):    3829305.                   -4746028.    
                            ---------------------------------------------------------------------------
                                              [TOTAL]:    6182333.     KG            -6182333.     KG  

                                                          NET (IN - OUT):  -0.5157507E-02
                                                   DISCREPANCY (PERCENT):  -0.8342331E-07
 
 SOLVING FOR HEAD 
 FLOW MODEL IS TRANSIENT
 FLOW MODEL CONTAINS CONSTANT-HEAD CELLS


 MAXIMUM STEPSIZE DURING WHICH ANY PARTICLE CANNOT MOVE MORE THAN ONE CELL
 =  5.219    (WHEN MIN. R.F.=1)  AT K=   4, I=   1, J=  47

 MAXIMUM STEPSIZE WHICH MEETS STABILITY CRITERION OF THE ADVECTION TERM
 (FOR PURE FINITE-DIFFERENCE OPTION, MIXELM=0) 
 =  4.042    (WHEN MIN. R.F.=1)  AT K=   2, I=   1, J=  81


 TOTAL NUMBER OF POINT SOURCES/SINKS PRESENT IN THE FLOW MODEL =    62

 MAXIMUM STEPSIZE WHICH MEETS STABILITY CRITERION OF THE SINK & SOURCE TERM
 =  807.8    (WHEN MIN. R.F.=1)  AT K=   2, I=   1, J=   1

 MAXIMUM STEPSIZE WHICH MEETS STABILITY CRITERION OF THE DISPERSION TERM
 =  20.29    (WHEN MIN. R.F.=1)  AT K=   1, I=   1, J=  31
     1 CALLS TO GCG PACKAGE FOR TRANSPORT TIME STEP   4 IN FLOW TIME STEP 374 STRESS PERIOD   1
     5 TOTAL ITERATIONS
  MAXIMUM CONCENTRATION CHANGES FOR EACH ITERATION:
  MAX. CHANGE LAYER,ROW,COL MAX. CHANGE LAYER,ROW,COL MAX. CHANGE LAYER,ROW,COL MAX. CHANGE LAYER,ROW,COL MAX. CHANGE LAYER,ROW,COL
 ------------------------------------------------------------------------------------------------------------------------------------
   0.1590E-01 (  2,  1, 76)  0.3469E-03 (  2,  1, 82)  0.9538E-05 (  2,  1, 77)  0.3372E-06 (  3,  1, 77)  0.8233E-08 (  4,  1, 77)


                                          ================================================
                                                         FROM TIME =   3740.0     TO    3750.0    

 
 SOLVING FOR HEAD 
 FLOW MODEL IS TRANSIENT
 FLOW MODEL CONTAINS CONSTANT-HEAD CELLS


 MAXIMUM STEPSIZE DURING WHICH ANY PARTICLE CANNOT MOVE MORE THAN ONE CELL
 =  5.251    (WHEN MIN. R.F.=1)  AT K=   4, I=   1, J=  47

 MAXIMUM STEPSIZE WHICH MEETS STABILITY CRITERION OF THE ADVECTION TERM
 (FOR PURE FINITE-DIFFERENCE OPTION, MIXELM=0) 
 =  3.963    (WHEN MIN. R.F.=1)  AT K=   2, I=   1, J=  41


 TOTAL NUMBER OF POINT SOURCES/SINKS PRESENT IN THE FLOW MODEL =    62

 MAXIMUM STEPSIZE WHICH MEETS STABILITY CRITERION OF THE SINK & SOURCE TERM
 =  1012.    (WHEN MIN. R.F.=1)  AT K=   2, I=   1, J=   1

 MAXIMUM STEPSIZE WHICH MEETS STABILITY CRITERION OF THE DISPERSION TERM
 =  20.29    (WHEN MIN. R.F.=1)  AT K=   1, I=   1, J=  31


     1 CALLS TO GCG PACKAGE FOR TRANSPORT TIME STEP   1 IN FLOW TIME STEP 375 STRESS PERIOD   1
     6 TOTAL ITERATIONS

 NO OUTPUT CONTROL FOR STRESS PERIOD    1   TIME STEP 375
 
 SOLVING FOR HEAD 
 FLOW MODEL IS TRANSIENT
 FLOW MODEL CONTAINS CONSTANT-HEAD CELLS


 MAXIMUM STEPSIZE DURING WHICH ANY PARTICLE CANNOT MOVE MORE THAN ONE CELL
 =  5.107    (WHEN MIN. R.F.=1)  AT K=   4, I=   1, J=  74

 MAXIMUM STEPSIZE WHICH MEETS STABILITY CRITERION OF THE ADVECTION TERM
 (FOR PURE FINITE-DIFFERENCE OPTION, MIXELM=0) 
 =  3.840    (WHEN MIN. R.F.=1)  AT K=   2, I=   1, J=  41


 TOTAL NUMBER OF POINT SOURCES/SINKS PRESENT IN THE FLOW MODEL =    62

 MAXIMUM STEPSIZE WHICH MEETS STABILITY CRITERION OF THE SINK & SOURCE TERM
 =  1087.    (WHEN MIN. R.F.=1)  AT K=   2, I=   1, J=   1

 MAXIMUM STEPSIZE WHICH MEETS STABILITY CRITERION OF THE DISPERSION TERM
 =  20.29    (WHEN MIN. R.F.=1)  AT K=   1, I=   1, J=  31
     1 CALLS TO GCG PACKAGE FOR TRANSPORT TIME STEP   2 IN FLOW TIME STEP 375 STRESS PERIOD   1
     6 TOTAL ITERATIONS
 
 SOLVING FOR HEAD 
 FLOW MODEL IS TRANSIENT
 FLOW MODEL CONTAINS CONSTANT-HEAD CELLS


 MAXIMUM STEPSIZE DURING WHICH ANY PARTICLE CANNOT MOVE MORE THAN ONE CELL
 =  5.009    (WHEN MIN. R.F.=1)  AT K=   4, I=   1, J=  74

 MAXIMUM STEPSIZE WHICH MEETS STABILITY CRITERION OF THE ADVECTION TERM
 (FOR PURE FINITE-DIFFERENCE OPTION, MIXELM=0) 
 =  3.878    (WHEN MIN. R.F.=1)  AT K=   2, I=   1, J=  41


 TOTAL NUMBER OF POINT SOURCES/SINKS PRESENT IN THE FLOW MODEL =    62

 MAXIMUM STEPSIZE WHICH MEETS STABILITY CRITERION OF THE SINK & SOURCE TERM
 =  1512.    (WHEN MIN. R.F.=1)  AT K=   2, I=   1, J=   1

 MAXIMUM STEPSIZE WHICH MEETS STABILITY CRITERION OF THE DISPERSION TERM
 =  20.29    (WHEN MIN. R.F.=1)  AT K=   1, I=   1, J=  31
     1 CALLS TO GCG PACKAGE FOR TRANSPORT TIME STEP   3 IN FLOW TIME STEP 375 STRESS PERIOD   1
     6 TOTAL ITERATIONS
 
 SOLVING FOR HEAD 
 FLOW MODEL IS TRANSIENT
 FLOW MODEL CONTAINS CONSTANT-HEAD CELLS


 MAXIMUM STEPSIZE DURING WHICH ANY PARTICLE CANNOT MOVE MORE THAN ONE CELL
 =  4.961    (WHEN MIN. R.F.=1)  AT K=   4, I=   1, J=  74

 MAXIMUM STEPSIZE WHICH MEETS STABILITY CRITERION OF THE ADVECTION TERM
 (FOR PURE FINITE-DIFFERENCE OPTION, MIXELM=0) 
 =  3.778    (WHEN MIN. R.F.=1)  AT K=   2, I=   1, J=  80


 TOTAL NUMBER OF POINT SOURCES/SINKS PRESENT IN THE FLOW MODEL =    62

 MAXIMUM STEPSIZE WHICH MEETS STABILITY CRITERION OF THE SINK & SOURCE TERM
 =  1667.    (WHEN MIN. R.F.=1)  AT K=   2, I=   1, J= 120

 MAXIMUM STEPSIZE WHICH MEETS STABILITY CRITERION OF THE DISPERSION TERM
 =  20.29    (WHEN MIN. R.F.=1)  AT K=   1, I=   1, J=  31
     1 CALLS TO GCG PACKAGE FOR TRANSPORT TIME STEP   4 IN FLOW TIME STEP 375 STRESS PERIOD   1
     5 TOTAL ITERATIONS
  MAXIMUM CONCENTRATION CHANGES FOR EACH ITERATION:
  MAX. CHANGE LAYER,ROW,COL MAX. CHANGE LAYER,ROW,COL MAX. CHANGE LAYER,ROW,COL MAX. CHANGE LAYER,ROW,COL MAX. CHANGE LAYER,ROW,COL
 ------------------------------------------------------------------------------------------------------------------------------------
   0.1236E-01 (  2,  1, 40)  0.1887E-03 (  2,  1, 62)  0.5708E-05 (  3,  1, 42)  0.1514E-06 (  3,  1, 45)  0.2664E-08 (  4,  1, 45)


                                          ================================================
                                                         FROM TIME =   3750.0     TO    3760.0    

 
 SOLVING FOR HEAD 
 FLOW MODEL IS TRANSIENT
 FLOW MODEL CONTAINS CONSTANT-HEAD CELLS


 MAXIMUM STEPSIZE DURING WHICH ANY PARTICLE CANNOT MOVE MORE THAN ONE CELL
 =  4.957    (WHEN MIN. R.F.=1)  AT K=   4, I=   1, J=  74

 MAXIMUM STEPSIZE WHICH MEETS STABILITY CRITERION OF THE ADVECTION TERM
 (FOR PURE FINITE-DIFFERENCE OPTION, MIXELM=0) 
 =  3.718    (WHEN MIN. R.F.=1)  AT K=   2, I=   1, J=  80


 TOTAL NUMBER OF POINT SOURCES/SINKS PRESENT IN THE FLOW MODEL =    62

 MAXIMUM STEPSIZE WHICH MEETS STABILITY CRITERION OF THE SINK & SOURCE TERM
 =  2335.    (WHEN MIN. R.F.=1)  AT K=   2, I=   1, J= 120

 MAXIMUM STEPSIZE WHICH MEETS STABILITY CRITERION OF THE DISPERSION TERM
 =  20.29    (WHEN MIN. R.F.=1)  AT K=   1, I=   1, J=  31


     1 CALLS TO GCG PACKAGE FOR TRANSPORT TIME STEP   1 IN FLOW TIME STEP 376 STRESS PERIOD   1
     6 TOTAL ITERATIONS

 NO OUTPUT CONTROL FOR STRESS PERIOD    1   TIME STEP 376
 
 SOLVING FOR HEAD 
 FLOW MODEL IS TRANSIENT
 FLOW MODEL CONTAINS CONSTANT-HEAD CELLS


 MAXIMUM STEPSIZE DURING WHICH ANY PARTICLE CANNOT MOVE MORE THAN ONE CELL
 =  4.971    (WHEN MIN. R.F.=1)  AT K=   4, I=   1, J=  74

 MAXIMUM STEPSIZE WHICH MEETS STABILITY CRITERION OF THE ADVECTION TERM
 (FOR PURE FINITE-DIFFERENCE OPTION, MIXELM=0) 
 =  3.644    (WHEN MIN. R.F.=1)  AT K=   2, I=   1, J=  80


 TOTAL NUMBER OF POINT SOURCES/SINKS PRESENT IN THE FLOW MODEL =    62

 MAXIMUM STEPSIZE WHICH MEETS STABILITY CRITERION OF THE SINK & SOURCE TERM
 =  1282.    (WHEN MIN. R.F.=1)  AT K=   2, I=   1, J= 120

 MAXIMUM STEPSIZE WHICH MEETS STABILITY CRITERION OF THE DISPERSION TERM
 =  20.29    (WHEN MIN. R.F.=1)  AT K=   1, I=   1, J=  31
     1 CALLS TO GCG PACKAGE FOR TRANSPORT TIME STEP   2 IN FLOW TIME STEP 376 STRESS PERIOD   1
     6 TOTAL ITERATIONS
 
 SOLVING FOR HEAD 
 FLOW MODEL IS TRANSIENT
 FLOW MODEL CONTAINS CONSTANT-HEAD CELLS


 MAXIMUM STEPSIZE DURING WHICH ANY PARTICLE CANNOT MOVE MORE THAN ONE CELL
 =  5.027    (WHEN MIN. R.F.=1)  AT K=   5, I=   1, J=  74

 MAXIMUM STEPSIZE WHICH MEETS STABILITY CRITERION OF THE ADVECTION TERM
 (FOR PURE FINITE-DIFFERENCE OPTION, MIXELM=0) 
 =  3.734    (WHEN MIN. R.F.=1)  AT K=   2, I=   1, J=  80


 TOTAL NUMBER OF POINT SOURCES/SINKS PRESENT IN THE FLOW MODEL =    62

 MAXIMUM STEPSIZE WHICH MEETS STABILITY CRITERION OF THE SINK & SOURCE TERM
 =  1324.    (WHEN MIN. R.F.=1)  AT K=   2, I=   1, J= 120

 MAXIMUM STEPSIZE WHICH MEETS STABILITY CRITERION OF THE DISPERSION TERM
 =  20.29    (WHEN MIN. R.F.=1)  AT K=   1, I=   1, J=  31
     1 CALLS TO GCG PACKAGE FOR TRANSPORT TIME STEP   3 IN FLOW TIME STEP 376 STRESS PERIOD   1
     6 TOTAL ITERATIONS
 
 SOLVING FOR HEAD 
 FLOW MODEL IS TRANSIENT
 FLOW MODEL CONTAINS CONSTANT-HEAD CELLS


 MAXIMUM STEPSIZE DURING WHICH ANY PARTICLE CANNOT MOVE MORE THAN ONE CELL
 =  5.064    (WHEN MIN. R.F.=1)  AT K=   5, I=   1, J=  74

 MAXIMUM STEPSIZE WHICH MEETS STABILITY CRITERION OF THE ADVECTION TERM
 (FOR PURE FINITE-DIFFERENCE OPTION, MIXELM=0) 
 =  3.788    (WHEN MIN. R.F.=1)  AT K=   2, I=   1, J=  42


 TOTAL NUMBER OF POINT SOURCES/SINKS PRESENT IN THE FLOW MODEL =    62

 MAXIMUM STEPSIZE WHICH MEETS STABILITY CRITERION OF THE SINK & SOURCE TERM
 =  1185.    (WHEN MIN. R.F.=1)  AT K=   2, I=   1, J= 120

 MAXIMUM STEPSIZE WHICH MEETS STABILITY CRITERION OF THE DISPERSION TERM
 =  20.29    (WHEN MIN. R.F.=1)  AT K=   1, I=   1, J=  31
     1 CALLS TO GCG PACKAGE FOR TRANSPORT TIME STEP   4 IN FLOW TIME STEP 376 STRESS PERIOD   1
     5 TOTAL ITERATIONS
  MAXIMUM CONCENTRATION CHANGES FOR EACH ITERATION:
  MAX. CHANGE LAYER,ROW,COL MAX. CHANGE LAYER,ROW,COL MAX. CHANGE LAYER,ROW,COL MAX. CHANGE LAYER,ROW,COL MAX. CHANGE LAYER,ROW,COL
 ------------------------------------------------------------------------------------------------------------------------------------
   0.2011E-01 (  2,  1, 81)  0.5139E-03 (  2,  1, 79)  0.2053E-04 (  3,  1, 79)  0.9039E-06 (  3,  1, 45)  0.2572E-07 (  4,  1, 45)


                                          ================================================
                                                         FROM TIME =   3760.0     TO    3770.0    

 
 SOLVING FOR HEAD 
 FLOW MODEL IS TRANSIENT
 FLOW MODEL CONTAINS CONSTANT-HEAD CELLS


 MAXIMUM STEPSIZE DURING WHICH ANY PARTICLE CANNOT MOVE MORE THAN ONE CELL
 =  5.103    (WHEN MIN. R.F.=1)  AT K=   5, I=   1, J=  74

 MAXIMUM STEPSIZE WHICH MEETS STABILITY CRITERION OF THE ADVECTION TERM
 (FOR PURE FINITE-DIFFERENCE OPTION, MIXELM=0) 
 =  3.790    (WHEN MIN. R.F.=1)  AT K=   2, I=   1, J=  79


 TOTAL NUMBER OF POINT SOURCES/SINKS PRESENT IN THE FLOW MODEL =    62

 MAXIMUM STEPSIZE WHICH MEETS STABILITY CRITERION OF THE SINK & SOURCE TERM
 =  1442.    (WHEN MIN. R.F.=1)  AT K=   2, I=   1, J= 120

 MAXIMUM STEPSIZE WHICH MEETS STABILITY CRITERION OF THE DISPERSION TERM
 =  20.29    (WHEN MIN. R.F.=1)  AT K=   1, I=   1, J=  31


     1 CALLS TO GCG PACKAGE FOR TRANSPORT TIME STEP   1 IN FLOW TIME STEP 377 STRESS PERIOD   1
     6 TOTAL ITERATIONS

 NO OUTPUT CONTROL FOR STRESS PERIOD    1   TIME STEP 377
 
 SOLVING FOR HEAD 
 FLOW MODEL IS TRANSIENT
 FLOW MODEL CONTAINS CONSTANT-HEAD CELLS


 MAXIMUM STEPSIZE DURING WHICH ANY PARTICLE CANNOT MOVE MORE THAN ONE CELL
 =  5.193    (WHEN MIN. R.F.=1)  AT K=   5, I=   1, J=  74

 MAXIMUM STEPSIZE WHICH MEETS STABILITY CRITERION OF THE ADVECTION TERM
 (FOR PURE FINITE-DIFFERENCE OPTION, MIXELM=0) 
 =  3.610    (WHEN MIN. R.F.=1)  AT K=   2, I=   1, J=  79


 TOTAL NUMBER OF POINT SOURCES/SINKS PRESENT IN THE FLOW MODEL =    62

 MAXIMUM STEPSIZE WHICH MEETS STABILITY CRITERION OF THE SINK & SOURCE TERM
 =  993.9    (WHEN MIN. R.F.=1)  AT K=   2, I=   1, J= 120

 MAXIMUM STEPSIZE WHICH MEETS STABILITY CRITERION OF THE DISPERSION TERM
 =  20.29    (WHEN MIN. R.F.=1)  AT K=   1, I=   1, J=  31
     1 CALLS TO GCG PACKAGE FOR TRANSPORT TIME STEP   2 IN FLOW TIME STEP 377 STRESS PERIOD   1
     6 TOTAL ITERATIONS
 
 SOLVING FOR HEAD 
 FLOW MODEL IS TRANSIENT
 FLOW MODEL CONTAINS CONSTANT-HEAD CELLS


 MAXIMUM STEPSIZE DURING WHICH ANY PARTICLE CANNOT MOVE MORE THAN ONE CELL
 =  5.314    (WHEN MIN. R.F.=1)  AT K=   5, I=   1, J=  74

 MAXIMUM STEPSIZE WHICH MEETS STABILITY CRITERION OF THE ADVECTION TERM
 (FOR PURE FINITE-DIFFERENCE OPTION, MIXELM=0) 
 =  3.575    (WHEN MIN. R.F.=1)  AT K=   2, I=   1, J=  79


 TOTAL NUMBER OF POINT SOURCES/SINKS PRESENT IN THE FLOW MODEL =    62

 MAXIMUM STEPSIZE WHICH MEETS STABILITY CRITERION OF THE SINK & SOURCE TERM
 =  902.1    (WHEN MIN. R.F.=1)  AT K=   2, I=   1, J= 120

 MAXIMUM STEPSIZE WHICH MEETS STABILITY CRITERION OF THE DISPERSION TERM
 =  20.29    (WHEN MIN. R.F.=1)  AT K=   1, I=   1, J=  31
     1 CALLS TO GCG PACKAGE FOR TRANSPORT TIME STEP   3 IN FLOW TIME STEP 377 STRESS PERIOD   1
     6 TOTAL ITERATIONS
 
 SOLVING FOR HEAD 
 FLOW MODEL IS TRANSIENT
 FLOW MODEL CONTAINS CONSTANT-HEAD CELLS


 MAXIMUM STEPSIZE DURING WHICH ANY PARTICLE CANNOT MOVE MORE THAN ONE CELL
 =  5.395    (WHEN MIN. R.F.=1)  AT K=  27, I=   1, J=  67

 MAXIMUM STEPSIZE WHICH MEETS STABILITY CRITERION OF THE ADVECTION TERM
 (FOR PURE FINITE-DIFFERENCE OPTION, MIXELM=0) 
 =  3.668    (WHEN MIN. R.F.=1)  AT K=   2, I=   1, J=  79


 TOTAL NUMBER OF POINT SOURCES/SINKS PRESENT IN THE FLOW MODEL =    62

 MAXIMUM STEPSIZE WHICH MEETS STABILITY CRITERION OF THE SINK & SOURCE TERM
 =  849.1    (WHEN MIN. R.F.=1)  AT K=   2, I=   1, J= 120

 MAXIMUM STEPSIZE WHICH MEETS STABILITY CRITERION OF THE DISPERSION TERM
 =  20.29    (WHEN MIN. R.F.=1)  AT K=   1, I=   1, J=  31
     1 CALLS TO GCG PACKAGE FOR TRANSPORT TIME STEP   4 IN FLOW TIME STEP 377 STRESS PERIOD   1
     5 TOTAL ITERATIONS
  MAXIMUM CONCENTRATION CHANGES FOR EACH ITERATION:
  MAX. CHANGE LAYER,ROW,COL MAX. CHANGE LAYER,ROW,COL MAX. CHANGE LAYER,ROW,COL MAX. CHANGE LAYER,ROW,COL MAX. CHANGE LAYER,ROW,COL
 ------------------------------------------------------------------------------------------------------------------------------------
   0.2016E-01 (  2,  1, 80)  0.4698E-03 (  2,  1, 78)  0.2074E-04 (  3,  1, 78)  0.8393E-06 (  3,  1, 76)  0.2023E-07 (  4,  1, 76)


                                          ================================================
                                                         FROM TIME =   3770.0     TO    3780.0    

 
 SOLVING FOR HEAD 
 FLOW MODEL IS TRANSIENT
 FLOW MODEL CONTAINS CONSTANT-HEAD CELLS


 MAXIMUM STEPSIZE DURING WHICH ANY PARTICLE CANNOT MOVE MORE THAN ONE CELL
 =  5.376    (WHEN MIN. R.F.=1)  AT K=  27, I=   1, J=  67

 MAXIMUM STEPSIZE WHICH MEETS STABILITY CRITERION OF THE ADVECTION TERM
 (FOR PURE FINITE-DIFFERENCE OPTION, MIXELM=0) 
 =  3.781    (WHEN MIN. R.F.=1)  AT K=   2, I=   1, J=  43


 TOTAL NUMBER OF POINT SOURCES/SINKS PRESENT IN THE FLOW MODEL =    62

 MAXIMUM STEPSIZE WHICH MEETS STABILITY CRITERION OF THE SINK & SOURCE TERM
 =  1022.    (WHEN MIN. R.F.=1)  AT K=   2, I=   1, J= 120

 MAXIMUM STEPSIZE WHICH MEETS STABILITY CRITERION OF THE DISPERSION TERM
 =  20.29    (WHEN MIN. R.F.=1)  AT K=   1, I=   1, J=  31


     1 CALLS TO GCG PACKAGE FOR TRANSPORT TIME STEP   1 IN FLOW TIME STEP 378 STRESS PERIOD   1
     6 TOTAL ITERATIONS

 NO OUTPUT CONTROL FOR STRESS PERIOD    1   TIME STEP 378
 
 SOLVING FOR HEAD 
 FLOW MODEL IS TRANSIENT
 FLOW MODEL CONTAINS CONSTANT-HEAD CELLS


 MAXIMUM STEPSIZE DURING WHICH ANY PARTICLE CANNOT MOVE MORE THAN ONE CELL
 =  5.350    (WHEN MIN. R.F.=1)  AT K=  27, I=   1, J=  67

 MAXIMUM STEPSIZE WHICH MEETS STABILITY CRITERION OF THE ADVECTION TERM
 (FOR PURE FINITE-DIFFERENCE OPTION, MIXELM=0) 
 =  3.839    (WHEN MIN. R.F.=1)  AT K=   2, I=   1, J=  43


 TOTAL NUMBER OF POINT SOURCES/SINKS PRESENT IN THE FLOW MODEL =    62

 MAXIMUM STEPSIZE WHICH MEETS STABILITY CRITERION OF THE SINK & SOURCE TERM
 =  840.1    (WHEN MIN. R.F.=1)  AT K=   2, I=   1, J= 120

 MAXIMUM STEPSIZE WHICH MEETS STABILITY CRITERION OF THE DISPERSION TERM
 =  20.29    (WHEN MIN. R.F.=1)  AT K=   1, I=   1, J=  31
     1 CALLS TO GCG PACKAGE FOR TRANSPORT TIME STEP   2 IN FLOW TIME STEP 378 STRESS PERIOD   1
     6 TOTAL ITERATIONS
 
 SOLVING FOR HEAD 
 FLOW MODEL IS TRANSIENT
 FLOW MODEL CONTAINS CONSTANT-HEAD CELLS


 MAXIMUM STEPSIZE DURING WHICH ANY PARTICLE CANNOT MOVE MORE THAN ONE CELL
 =  5.336    (WHEN MIN. R.F.=1)  AT K=  27, I=   1, J=  67

 MAXIMUM STEPSIZE WHICH MEETS STABILITY CRITERION OF THE ADVECTION TERM
 (FOR PURE FINITE-DIFFERENCE OPTION, MIXELM=0) 
 =  3.737    (WHEN MIN. R.F.=1)  AT K=   2, I=   1, J=  78


 TOTAL NUMBER OF POINT SOURCES/SINKS PRESENT IN THE FLOW MODEL =    62

 MAXIMUM STEPSIZE WHICH MEETS STABILITY CRITERION OF THE SINK & SOURCE TERM
 =  780.6    (WHEN MIN. R.F.=1)  AT K=   2, I=   1, J= 120

 MAXIMUM STEPSIZE WHICH MEETS STABILITY CRITERION OF THE DISPERSION TERM
 =  20.29    (WHEN MIN. R.F.=1)  AT K=   1, I=   1, J=  31
     1 CALLS TO GCG PACKAGE FOR TRANSPORT TIME STEP   3 IN FLOW TIME STEP 378 STRESS PERIOD   1
     6 TOTAL ITERATIONS
 
 SOLVING FOR HEAD 
 FLOW MODEL IS TRANSIENT
 FLOW MODEL CONTAINS CONSTANT-HEAD CELLS


 MAXIMUM STEPSIZE DURING WHICH ANY PARTICLE CANNOT MOVE MORE THAN ONE CELL
 =  5.330    (WHEN MIN. R.F.=1)  AT K=  27, I=   1, J=  67

 MAXIMUM STEPSIZE WHICH MEETS STABILITY CRITERION OF THE ADVECTION TERM
 (FOR PURE FINITE-DIFFERENCE OPTION, MIXELM=0) 
 =  3.648    (WHEN MIN. R.F.=1)  AT K=   2, I=   1, J=  78


 TOTAL NUMBER OF POINT SOURCES/SINKS PRESENT IN THE FLOW MODEL =    62

 MAXIMUM STEPSIZE WHICH MEETS STABILITY CRITERION OF THE SINK & SOURCE TERM
 =  702.6    (WHEN MIN. R.F.=1)  AT K=   2, I=   1, J= 120

 MAXIMUM STEPSIZE WHICH MEETS STABILITY CRITERION OF THE DISPERSION TERM
 =  20.29    (WHEN MIN. R.F.=1)  AT K=   1, I=   1, J=  31
     1 CALLS TO GCG PACKAGE FOR TRANSPORT TIME STEP   4 IN FLOW TIME STEP 378 STRESS PERIOD   1
     5 TOTAL ITERATIONS
  MAXIMUM CONCENTRATION CHANGES FOR EACH ITERATION:
  MAX. CHANGE LAYER,ROW,COL MAX. CHANGE LAYER,ROW,COL MAX. CHANGE LAYER,ROW,COL MAX. CHANGE LAYER,ROW,COL MAX. CHANGE LAYER,ROW,COL
 ------------------------------------------------------------------------------------------------------------------------------------
   0.1675E-01 (  2,  1, 42)  0.4171E-03 (  2,  1, 79)  0.1230E-04 (  2,  1, 80)  0.4251E-06 (  3,  1, 80)  0.1314E-07 (  3,  1, 33)


                                          ================================================
                                                         FROM TIME =   3780.0     TO    3790.0    

 
 SOLVING FOR HEAD 
 FLOW MODEL IS TRANSIENT
 FLOW MODEL CONTAINS CONSTANT-HEAD CELLS


 MAXIMUM STEPSIZE DURING WHICH ANY PARTICLE CANNOT MOVE MORE THAN ONE CELL
 =  5.330    (WHEN MIN. R.F.=1)  AT K=  27, I=   1, J=  67

 MAXIMUM STEPSIZE WHICH MEETS STABILITY CRITERION OF THE ADVECTION TERM
 (FOR PURE FINITE-DIFFERENCE OPTION, MIXELM=0) 
 =  3.657    (WHEN MIN. R.F.=1)  AT K=   2, I=   1, J=  78


 TOTAL NUMBER OF POINT SOURCES/SINKS PRESENT IN THE FLOW MODEL =    62

 MAXIMUM STEPSIZE WHICH MEETS STABILITY CRITERION OF THE SINK & SOURCE TERM
 =  814.9    (WHEN MIN. R.F.=1)  AT K=   2, I=   1, J= 120

 MAXIMUM STEPSIZE WHICH MEETS STABILITY CRITERION OF THE DISPERSION TERM
 =  20.29    (WHEN MIN. R.F.=1)  AT K=   1, I=   1, J=  31


     1 CALLS TO GCG PACKAGE FOR TRANSPORT TIME STEP   1 IN FLOW TIME STEP 379 STRESS PERIOD   1
     6 TOTAL ITERATIONS

 NO OUTPUT CONTROL FOR STRESS PERIOD    1   TIME STEP 379
 
 SOLVING FOR HEAD 
 FLOW MODEL IS TRANSIENT
 FLOW MODEL CONTAINS CONSTANT-HEAD CELLS


 MAXIMUM STEPSIZE DURING WHICH ANY PARTICLE CANNOT MOVE MORE THAN ONE CELL
 =  5.336    (WHEN MIN. R.F.=1)  AT K=  27, I=   1, J=  67

 MAXIMUM STEPSIZE WHICH MEETS STABILITY CRITERION OF THE ADVECTION TERM
 (FOR PURE FINITE-DIFFERENCE OPTION, MIXELM=0) 
 =  3.747    (WHEN MIN. R.F.=1)  AT K=   2, I=   1, J=  78


 TOTAL NUMBER OF POINT SOURCES/SINKS PRESENT IN THE FLOW MODEL =    62

 MAXIMUM STEPSIZE WHICH MEETS STABILITY CRITERION OF THE SINK & SOURCE TERM
 =  698.2    (WHEN MIN. R.F.=1)  AT K=   2, I=   1, J= 120

 MAXIMUM STEPSIZE WHICH MEETS STABILITY CRITERION OF THE DISPERSION TERM
 =  20.29    (WHEN MIN. R.F.=1)  AT K=   1, I=   1, J=  31
     1 CALLS TO GCG PACKAGE FOR TRANSPORT TIME STEP   2 IN FLOW TIME STEP 379 STRESS PERIOD   1
     6 TOTAL ITERATIONS
 
 SOLVING FOR HEAD 
 FLOW MODEL IS TRANSIENT
 FLOW MODEL CONTAINS CONSTANT-HEAD CELLS


 MAXIMUM STEPSIZE DURING WHICH ANY PARTICLE CANNOT MOVE MORE THAN ONE CELL
 =  5.345    (WHEN MIN. R.F.=1)  AT K=  27, I=   1, J=  67

 MAXIMUM STEPSIZE WHICH MEETS STABILITY CRITERION OF THE ADVECTION TERM
 (FOR PURE FINITE-DIFFERENCE OPTION, MIXELM=0) 
 =  3.944    (WHEN MIN. R.F.=1)  AT K=   2, I=   1, J=  44


 TOTAL NUMBER OF POINT SOURCES/SINKS PRESENT IN THE FLOW MODEL =    62

 MAXIMUM STEPSIZE WHICH MEETS STABILITY CRITERION OF THE SINK & SOURCE TERM
 =  625.4    (WHEN MIN. R.F.=1)  AT K=   2, I=   1, J= 120

 MAXIMUM STEPSIZE WHICH MEETS STABILITY CRITERION OF THE DISPERSION TERM
 =  20.29    (WHEN MIN. R.F.=1)  AT K=   1, I=   1, J=  31
     1 CALLS TO GCG PACKAGE FOR TRANSPORT TIME STEP   3 IN FLOW TIME STEP 379 STRESS PERIOD   1
     6 TOTAL ITERATIONS
 
 SOLVING FOR HEAD 
 FLOW MODEL IS TRANSIENT
 FLOW MODEL CONTAINS CONSTANT-HEAD CELLS


 MAXIMUM STEPSIZE DURING WHICH ANY PARTICLE CANNOT MOVE MORE THAN ONE CELL
 =  5.344    (WHEN MIN. R.F.=1)  AT K=  28, I=   1, J=  67

 MAXIMUM STEPSIZE WHICH MEETS STABILITY CRITERION OF THE ADVECTION TERM
 (FOR PURE FINITE-DIFFERENCE OPTION, MIXELM=0) 
 =  4.010    (WHEN MIN. R.F.=1)  AT K=   2, I=   1, J=  44


 TOTAL NUMBER OF POINT SOURCES/SINKS PRESENT IN THE FLOW MODEL =    62

 MAXIMUM STEPSIZE WHICH MEETS STABILITY CRITERION OF THE SINK & SOURCE TERM
 =  561.1    (WHEN MIN. R.F.=1)  AT K=   2, I=   1, J= 120

 MAXIMUM STEPSIZE WHICH MEETS STABILITY CRITERION OF THE DISPERSION TERM
 =  20.29    (WHEN MIN. R.F.=1)  AT K=   1, I=   1, J=  31
     1 CALLS TO GCG PACKAGE FOR TRANSPORT TIME STEP   4 IN FLOW TIME STEP 379 STRESS PERIOD   1
     5 TOTAL ITERATIONS
  MAXIMUM CONCENTRATION CHANGES FOR EACH ITERATION:
  MAX. CHANGE LAYER,ROW,COL MAX. CHANGE LAYER,ROW,COL MAX. CHANGE LAYER,ROW,COL MAX. CHANGE LAYER,ROW,COL MAX. CHANGE LAYER,ROW,COL
 ------------------------------------------------------------------------------------------------------------------------------------
   0.1915E-01 (  2,  1, 79)  0.6530E-03 (  2,  1, 77)  0.2083E-04 (  3,  1, 77)  0.6046E-06 (  3,  1, 42)  0.2320E-07 (  5,  1, 80)


                                          ================================================
                                                         FROM TIME =   3790.0     TO    3800.0    

 
 SOLVING FOR HEAD 
 FLOW MODEL IS TRANSIENT
 FLOW MODEL CONTAINS CONSTANT-HEAD CELLS


 MAXIMUM STEPSIZE DURING WHICH ANY PARTICLE CANNOT MOVE MORE THAN ONE CELL
 =  5.345    (WHEN MIN. R.F.=1)  AT K=  28, I=   1, J=  67

 MAXIMUM STEPSIZE WHICH MEETS STABILITY CRITERION OF THE ADVECTION TERM
 (FOR PURE FINITE-DIFFERENCE OPTION, MIXELM=0) 
 =  4.026    (WHEN MIN. R.F.=1)  AT K=   2, I=   1, J=  77


 TOTAL NUMBER OF POINT SOURCES/SINKS PRESENT IN THE FLOW MODEL =    62

 MAXIMUM STEPSIZE WHICH MEETS STABILITY CRITERION OF THE SINK & SOURCE TERM
 =  569.2    (WHEN MIN. R.F.=1)  AT K=   2, I=   1, J= 120

 MAXIMUM STEPSIZE WHICH MEETS STABILITY CRITERION OF THE DISPERSION TERM
 =  20.29    (WHEN MIN. R.F.=1)  AT K=   1, I=   1, J=  31


     1 CALLS TO GCG PACKAGE FOR TRANSPORT TIME STEP   1 IN FLOW TIME STEP 380 STRESS PERIOD   1
     6 TOTAL ITERATIONS

 NO OUTPUT CONTROL FOR STRESS PERIOD    1   TIME STEP 380
 
 SOLVING FOR HEAD 
 FLOW MODEL IS TRANSIENT
 FLOW MODEL CONTAINS CONSTANT-HEAD CELLS


 MAXIMUM STEPSIZE DURING WHICH ANY PARTICLE CANNOT MOVE MORE THAN ONE CELL
 =  5.345    (WHEN MIN. R.F.=1)  AT K=  28, I=   1, J=  67

 MAXIMUM STEPSIZE WHICH MEETS STABILITY CRITERION OF THE ADVECTION TERM
 (FOR PURE FINITE-DIFFERENCE OPTION, MIXELM=0) 
 =  3.870    (WHEN MIN. R.F.=1)  AT K=   2, I=   1, J=  77


 TOTAL NUMBER OF POINT SOURCES/SINKS PRESENT IN THE FLOW MODEL =    62

 MAXIMUM STEPSIZE WHICH MEETS STABILITY CRITERION OF THE SINK & SOURCE TERM
 =  495.0    (WHEN MIN. R.F.=1)  AT K=   2, I=   1, J= 120

 MAXIMUM STEPSIZE WHICH MEETS STABILITY CRITERION OF THE DISPERSION TERM
 =  20.29    (WHEN MIN. R.F.=1)  AT K=   1, I=   1, J=  31
     1 CALLS TO GCG PACKAGE FOR TRANSPORT TIME STEP   2 IN FLOW TIME STEP 380 STRESS PERIOD   1
     6 TOTAL ITERATIONS
 
 SOLVING FOR HEAD 
 FLOW MODEL IS TRANSIENT
 FLOW MODEL CONTAINS CONSTANT-HEAD CELLS


 MAXIMUM STEPSIZE DURING WHICH ANY PARTICLE CANNOT MOVE MORE THAN ONE CELL
 =  5.347    (WHEN MIN. R.F.=1)  AT K=  28, I=   1, J=  67

 MAXIMUM STEPSIZE WHICH MEETS STABILITY CRITERION OF THE ADVECTION TERM
 (FOR PURE FINITE-DIFFERENCE OPTION, MIXELM=0) 
 =  3.854    (WHEN MIN. R.F.=1)  AT K=   2, I=   1, J=  77


 TOTAL NUMBER OF POINT SOURCES/SINKS PRESENT IN THE FLOW MODEL =    62

 MAXIMUM STEPSIZE WHICH MEETS STABILITY CRITERION OF THE SINK & SOURCE TERM
 =  471.0    (WHEN MIN. R.F.=1)  AT K=   2, I=   1, J= 120

 MAXIMUM STEPSIZE WHICH MEETS STABILITY CRITERION OF THE DISPERSION TERM
 =  20.29    (WHEN MIN. R.F.=1)  AT K=   1, I=   1, J=  31
     1 CALLS TO GCG PACKAGE FOR TRANSPORT TIME STEP   3 IN FLOW TIME STEP 380 STRESS PERIOD   1
     6 TOTAL ITERATIONS
 
 SOLVING FOR HEAD 
 FLOW MODEL IS TRANSIENT
 FLOW MODEL CONTAINS CONSTANT-HEAD CELLS


 MAXIMUM STEPSIZE DURING WHICH ANY PARTICLE CANNOT MOVE MORE THAN ONE CELL
 =  5.352    (WHEN MIN. R.F.=1)  AT K=  28, I=   1, J=  67

 MAXIMUM STEPSIZE WHICH MEETS STABILITY CRITERION OF THE ADVECTION TERM
 (FOR PURE FINITE-DIFFERENCE OPTION, MIXELM=0) 
 =  3.946    (WHEN MIN. R.F.=1)  AT K=   2, I=   1, J=  77


 TOTAL NUMBER OF POINT SOURCES/SINKS PRESENT IN THE FLOW MODEL =    62

 MAXIMUM STEPSIZE WHICH MEETS STABILITY CRITERION OF THE SINK & SOURCE TERM
 =  429.3    (WHEN MIN. R.F.=1)  AT K=   2, I=   1, J= 120

 MAXIMUM STEPSIZE WHICH MEETS STABILITY CRITERION OF THE DISPERSION TERM
 =  20.29    (WHEN MIN. R.F.=1)  AT K=   1, I=   1, J=  31
     1 CALLS TO GCG PACKAGE FOR TRANSPORT TIME STEP   4 IN FLOW TIME STEP 380 STRESS PERIOD   1
     5 TOTAL ITERATIONS
  MAXIMUM CONCENTRATION CHANGES FOR EACH ITERATION:
  MAX. CHANGE LAYER,ROW,COL MAX. CHANGE LAYER,ROW,COL MAX. CHANGE LAYER,ROW,COL MAX. CHANGE LAYER,ROW,COL MAX. CHANGE LAYER,ROW,COL
 ------------------------------------------------------------------------------------------------------------------------------------
   0.1332E-01 (  2,  1, 78)  0.2158E-03 (  2,  1, 78)  0.5313E-05 (  2,  1, 79)  0.1399E-06 (  3,  1, 79)  0.2464E-08 (  4,  1, 78)


                                          ================================================
                                                         FROM TIME =   3800.0     TO    3810.0    

 
 SOLVING FOR HEAD 
 FLOW MODEL IS TRANSIENT
 FLOW MODEL CONTAINS CONSTANT-HEAD CELLS


 MAXIMUM STEPSIZE DURING WHICH ANY PARTICLE CANNOT MOVE MORE THAN ONE CELL
 =  5.360    (WHEN MIN. R.F.=1)  AT K=  28, I=   1, J=  67

 MAXIMUM STEPSIZE WHICH MEETS STABILITY CRITERION OF THE ADVECTION TERM
 (FOR PURE FINITE-DIFFERENCE OPTION, MIXELM=0) 
 =  4.025    (WHEN MIN. R.F.=1)  AT K=   2, I=   1, J=  77


 TOTAL NUMBER OF POINT SOURCES/SINKS PRESENT IN THE FLOW MODEL =    62

 MAXIMUM STEPSIZE WHICH MEETS STABILITY CRITERION OF THE SINK & SOURCE TERM
 =  431.6    (WHEN MIN. R.F.=1)  AT K=   2, I=   1, J= 120

 MAXIMUM STEPSIZE WHICH MEETS STABILITY CRITERION OF THE DISPERSION TERM
 =  20.29    (WHEN MIN. R.F.=1)  AT K=   1, I=   1, J=  31


     1 CALLS TO GCG PACKAGE FOR TRANSPORT TIME STEP   1 IN FLOW TIME STEP 381 STRESS PERIOD   1
     6 TOTAL ITERATIONS

 NO OUTPUT CONTROL FOR STRESS PERIOD    1   TIME STEP 381
 
 SOLVING FOR HEAD 
 FLOW MODEL IS TRANSIENT
 FLOW MODEL CONTAINS CONSTANT-HEAD CELLS


 MAXIMUM STEPSIZE DURING WHICH ANY PARTICLE CANNOT MOVE MORE THAN ONE CELL
 =  5.375    (WHEN MIN. R.F.=1)  AT K=  28, I=   1, J=  67

 MAXIMUM STEPSIZE WHICH MEETS STABILITY CRITERION OF THE ADVECTION TERM
 (FOR PURE FINITE-DIFFERENCE OPTION, MIXELM=0) 
 =  4.323    (WHEN MIN. R.F.=1)  AT K=   2, I=   1, J=  45


 TOTAL NUMBER OF POINT SOURCES/SINKS PRESENT IN THE FLOW MODEL =    62

 MAXIMUM STEPSIZE WHICH MEETS STABILITY CRITERION OF THE SINK & SOURCE TERM
 =  362.2    (WHEN MIN. R.F.=1)  AT K=   2, I=   1, J= 120

 MAXIMUM STEPSIZE WHICH MEETS STABILITY CRITERION OF THE DISPERSION TERM
 =  20.29    (WHEN MIN. R.F.=1)  AT K=   1, I=   1, J=  31
     1 CALLS TO GCG PACKAGE FOR TRANSPORT TIME STEP   2 IN FLOW TIME STEP 381 STRESS PERIOD   1
     6 TOTAL ITERATIONS
 
 SOLVING FOR HEAD 
 FLOW MODEL IS TRANSIENT
 FLOW MODEL CONTAINS CONSTANT-HEAD CELLS


 MAXIMUM STEPSIZE DURING WHICH ANY PARTICLE CANNOT MOVE MORE THAN ONE CELL
 =  5.391    (WHEN MIN. R.F.=1)  AT K=  28, I=   1, J=  67

 MAXIMUM STEPSIZE WHICH MEETS STABILITY CRITERION OF THE ADVECTION TERM
 (FOR PURE FINITE-DIFFERENCE OPTION, MIXELM=0) 
 =  4.387    (WHEN MIN. R.F.=1)  AT K=  30, I=   1, J=  93


 TOTAL NUMBER OF POINT SOURCES/SINKS PRESENT IN THE FLOW MODEL =    62

 MAXIMUM STEPSIZE WHICH MEETS STABILITY CRITERION OF THE SINK & SOURCE TERM
 =  327.4    (WHEN MIN. R.F.=1)  AT K=   2, I=   1, J= 120

 MAXIMUM STEPSIZE WHICH MEETS STABILITY CRITERION OF THE DISPERSION TERM
 =  20.29    (WHEN MIN. R.F.=1)  AT K=   1, I=   1, J=  31
     1 CALLS TO GCG PACKAGE FOR TRANSPORT TIME STEP   3 IN FLOW TIME STEP 381 STRESS PERIOD   1
     6 TOTAL ITERATIONS
 
 SOLVING FOR HEAD 
 FLOW MODEL IS TRANSIENT
 FLOW MODEL CONTAINS CONSTANT-HEAD CELLS


 MAXIMUM STEPSIZE DURING WHICH ANY PARTICLE CANNOT MOVE MORE THAN ONE CELL
 =  5.411    (WHEN MIN. R.F.=1)  AT K=  28, I=   1, J=  67

 MAXIMUM STEPSIZE WHICH MEETS STABILITY CRITERION OF THE ADVECTION TERM
 (FOR PURE FINITE-DIFFERENCE OPTION, MIXELM=0) 
 =  4.392    (WHEN MIN. R.F.=1)  AT K=  30, I=   1, J=  24


 TOTAL NUMBER OF POINT SOURCES/SINKS PRESENT IN THE FLOW MODEL =    62

 MAXIMUM STEPSIZE WHICH MEETS STABILITY CRITERION OF THE SINK & SOURCE TERM
 =  300.3    (WHEN MIN. R.F.=1)  AT K=   2, I=   1, J= 120

 MAXIMUM STEPSIZE WHICH MEETS STABILITY CRITERION OF THE DISPERSION TERM
 =  20.29    (WHEN MIN. R.F.=1)  AT K=   1, I=   1, J=  31
     1 CALLS TO GCG PACKAGE FOR TRANSPORT TIME STEP   4 IN FLOW TIME STEP 381 STRESS PERIOD   1
     4 TOTAL ITERATIONS
  MAXIMUM CONCENTRATION CHANGES FOR EACH ITERATION:
  MAX. CHANGE LAYER,ROW,COL MAX. CHANGE LAYER,ROW,COL MAX. CHANGE LAYER,ROW,COL MAX. CHANGE LAYER,ROW,COL MAX. CHANGE LAYER,ROW,COL
 ------------------------------------------------------------------------------------------------------------------------------------
   0.8314E-02 (  2,  1, 44)  0.1141E-03 (  2,  1, 76)  0.1564E-05 (  2,  1, 78)  0.3327E-07 (  3,  1, 43)


                                          ================================================
                                                         FROM TIME =   3810.0     TO    3820.0    

 
 SOLVING FOR HEAD 
 FLOW MODEL IS TRANSIENT
 FLOW MODEL CONTAINS CONSTANT-HEAD CELLS


 MAXIMUM STEPSIZE DURING WHICH ANY PARTICLE CANNOT MOVE MORE THAN ONE CELL
 =  5.421    (WHEN MIN. R.F.=1)  AT K=  28, I=   1, J=  67

 MAXIMUM STEPSIZE WHICH MEETS STABILITY CRITERION OF THE ADVECTION TERM
 (FOR PURE FINITE-DIFFERENCE OPTION, MIXELM=0) 
 =  4.374    (WHEN MIN. R.F.=1)  AT K=   2, I=   1, J=  76


 TOTAL NUMBER OF POINT SOURCES/SINKS PRESENT IN THE FLOW MODEL =    62

 MAXIMUM STEPSIZE WHICH MEETS STABILITY CRITERION OF THE SINK & SOURCE TERM
 =  312.1    (WHEN MIN. R.F.=1)  AT K=   2, I=   1, J= 120

 MAXIMUM STEPSIZE WHICH MEETS STABILITY CRITERION OF THE DISPERSION TERM
 =  20.29    (WHEN MIN. R.F.=1)  AT K=   1, I=   1, J=  31


     1 CALLS TO GCG PACKAGE FOR TRANSPORT TIME STEP   1 IN FLOW TIME STEP 382 STRESS PERIOD   1
     6 TOTAL ITERATIONS

 NO OUTPUT CONTROL FOR STRESS PERIOD    1   TIME STEP 382
 
 SOLVING FOR HEAD 
 FLOW MODEL IS TRANSIENT
 FLOW MODEL CONTAINS CONSTANT-HEAD CELLS


 MAXIMUM STEPSIZE DURING WHICH ANY PARTICLE CANNOT MOVE MORE THAN ONE CELL
 =  5.446    (WHEN MIN. R.F.=1)  AT K=  28, I=   1, J=  67

 MAXIMUM STEPSIZE WHICH MEETS STABILITY CRITERION OF THE ADVECTION TERM
 (FOR PURE FINITE-DIFFERENCE OPTION, MIXELM=0) 
 =  4.282    (WHEN MIN. R.F.=1)  AT K=   2, I=   1, J=  76


 TOTAL NUMBER OF POINT SOURCES/SINKS PRESENT IN THE FLOW MODEL =    62

 MAXIMUM STEPSIZE WHICH MEETS STABILITY CRITERION OF THE SINK & SOURCE TERM
 =  272.0    (WHEN MIN. R.F.=1)  AT K=   2, I=   1, J= 120

 MAXIMUM STEPSIZE WHICH MEETS STABILITY CRITERION OF THE DISPERSION TERM
 =  20.29    (WHEN MIN. R.F.=1)  AT K=   1, I=   1, J=  31
     1 CALLS TO GCG PACKAGE FOR TRANSPORT TIME STEP   2 IN FLOW TIME STEP 382 STRESS PERIOD   1
     6 TOTAL ITERATIONS
 
 SOLVING FOR HEAD 
 FLOW MODEL IS TRANSIENT
 FLOW MODEL CONTAINS CONSTANT-HEAD CELLS


 MAXIMUM STEPSIZE DURING WHICH ANY PARTICLE CANNOT MOVE MORE THAN ONE CELL
 =  5.471    (WHEN MIN. R.F.=1)  AT K=  28, I=   1, J=  67

 MAXIMUM STEPSIZE WHICH MEETS STABILITY CRITERION OF THE ADVECTION TERM
 (FOR PURE FINITE-DIFFERENCE OPTION, MIXELM=0) 
 =  4.344    (WHEN MIN. R.F.=1)  AT K=   2, I=   1, J=  76


 TOTAL NUMBER OF POINT SOURCES/SINKS PRESENT IN THE FLOW MODEL =    62

 MAXIMUM STEPSIZE WHICH MEETS STABILITY CRITERION OF THE SINK & SOURCE TERM
 =  249.7    (WHEN MIN. R.F.=1)  AT K=   2, I=   1, J= 120

 MAXIMUM STEPSIZE WHICH MEETS STABILITY CRITERION OF THE DISPERSION TERM
 =  20.29    (WHEN MIN. R.F.=1)  AT K=   1, I=   1, J=  31
     1 CALLS TO GCG PACKAGE FOR TRANSPORT TIME STEP   3 IN FLOW TIME STEP 382 STRESS PERIOD   1
     6 TOTAL ITERATIONS
 
 SOLVING FOR HEAD 
 FLOW MODEL IS TRANSIENT
 FLOW MODEL CONTAINS CONSTANT-HEAD CELLS


 MAXIMUM STEPSIZE DURING WHICH ANY PARTICLE CANNOT MOVE MORE THAN ONE CELL
 =  5.499    (WHEN MIN. R.F.=1)  AT K=  28, I=   1, J=  67

 MAXIMUM STEPSIZE WHICH MEETS STABILITY CRITERION OF THE ADVECTION TERM
 (FOR PURE FINITE-DIFFERENCE OPTION, MIXELM=0) 
 =  4.282    (WHEN MIN. R.F.=1)  AT K=  30, I=   1, J=  94


 TOTAL NUMBER OF POINT SOURCES/SINKS PRESENT IN THE FLOW MODEL =    62

 MAXIMUM STEPSIZE WHICH MEETS STABILITY CRITERION OF THE SINK & SOURCE TERM
 =  232.2    (WHEN MIN. R.F.=1)  AT K=   2, I=   1, J= 120

 MAXIMUM STEPSIZE WHICH MEETS STABILITY CRITERION OF THE DISPERSION TERM
 =  20.29    (WHEN MIN. R.F.=1)  AT K=   1, I=   1, J=  31
     1 CALLS TO GCG PACKAGE FOR TRANSPORT TIME STEP   4 IN FLOW TIME STEP 382 STRESS PERIOD   1
     3 TOTAL ITERATIONS
  MAXIMUM CONCENTRATION CHANGES FOR EACH ITERATION:
  MAX. CHANGE LAYER,ROW,COL MAX. CHANGE LAYER,ROW,COL MAX. CHANGE LAYER,ROW,COL MAX. CHANGE LAYER,ROW,COL MAX. CHANGE LAYER,ROW,COL
 ------------------------------------------------------------------------------------------------------------------------------------
   0.2557E-02 (  2,  1, 77)  0.7497E-05 (  3,  1, 43)  0.4135E-07 (  2,  1, 78)


                                          ================================================
                                                         FROM TIME =   3820.0     TO    3830.0    

 
 SOLVING FOR HEAD 
 FLOW MODEL IS TRANSIENT
 FLOW MODEL CONTAINS CONSTANT-HEAD CELLS


 MAXIMUM STEPSIZE DURING WHICH ANY PARTICLE CANNOT MOVE MORE THAN ONE CELL
 =  5.502    (WHEN MIN. R.F.=1)  AT K=  28, I=   1, J=  67

 MAXIMUM STEPSIZE WHICH MEETS STABILITY CRITERION OF THE ADVECTION TERM
 (FOR PURE FINITE-DIFFERENCE OPTION, MIXELM=0) 
 =  4.283    (WHEN MIN. R.F.=1)  AT K=  30, I=   1, J=  94


 TOTAL NUMBER OF POINT SOURCES/SINKS PRESENT IN THE FLOW MODEL =    62

 MAXIMUM STEPSIZE WHICH MEETS STABILITY CRITERION OF THE SINK & SOURCE TERM
 =  234.8    (WHEN MIN. R.F.=1)  AT K=   2, I=   1, J= 120

 MAXIMUM STEPSIZE WHICH MEETS STABILITY CRITERION OF THE DISPERSION TERM
 =  20.29    (WHEN MIN. R.F.=1)  AT K=   1, I=   1, J=  31


     1 CALLS TO GCG PACKAGE FOR TRANSPORT TIME STEP   1 IN FLOW TIME STEP 383 STRESS PERIOD   1
     6 TOTAL ITERATIONS

 NO OUTPUT CONTROL FOR STRESS PERIOD    1   TIME STEP 383
 
 SOLVING FOR HEAD 
 FLOW MODEL IS TRANSIENT
 FLOW MODEL CONTAINS CONSTANT-HEAD CELLS


 MAXIMUM STEPSIZE DURING WHICH ANY PARTICLE CANNOT MOVE MORE THAN ONE CELL
 =  5.531    (WHEN MIN. R.F.=1)  AT K=  28, I=   1, J=  67

 MAXIMUM STEPSIZE WHICH MEETS STABILITY CRITERION OF THE ADVECTION TERM
 (FOR PURE FINITE-DIFFERENCE OPTION, MIXELM=0) 
 =  4.331    (WHEN MIN. R.F.=1)  AT K=  30, I=   1, J=  94


 TOTAL NUMBER OF POINT SOURCES/SINKS PRESENT IN THE FLOW MODEL =    62

 MAXIMUM STEPSIZE WHICH MEETS STABILITY CRITERION OF THE SINK & SOURCE TERM
 =  210.8    (WHEN MIN. R.F.=1)  AT K=   2, I=   1, J= 120

 MAXIMUM STEPSIZE WHICH MEETS STABILITY CRITERION OF THE DISPERSION TERM
 =  20.29    (WHEN MIN. R.F.=1)  AT K=   1, I=   1, J=  31
     1 CALLS TO GCG PACKAGE FOR TRANSPORT TIME STEP   2 IN FLOW TIME STEP 383 STRESS PERIOD   1
     6 TOTAL ITERATIONS
 
 SOLVING FOR HEAD 
 FLOW MODEL IS TRANSIENT
 FLOW MODEL CONTAINS CONSTANT-HEAD CELLS


 MAXIMUM STEPSIZE DURING WHICH ANY PARTICLE CANNOT MOVE MORE THAN ONE CELL
 =  5.561    (WHEN MIN. R.F.=1)  AT K=  28, I=   1, J=  67

 MAXIMUM STEPSIZE WHICH MEETS STABILITY CRITERION OF THE ADVECTION TERM
 (FOR PURE FINITE-DIFFERENCE OPTION, MIXELM=0) 
 =  4.249    (WHEN MIN. R.F.=1)  AT K=   2, I=   1, J=  40


 TOTAL NUMBER OF POINT SOURCES/SINKS PRESENT IN THE FLOW MODEL =    62

 MAXIMUM STEPSIZE WHICH MEETS STABILITY CRITERION OF THE SINK & SOURCE TERM
 =  195.8    (WHEN MIN. R.F.=1)  AT K=   2, I=   1, J= 120

 MAXIMUM STEPSIZE WHICH MEETS STABILITY CRITERION OF THE DISPERSION TERM
 =  20.29    (WHEN MIN. R.F.=1)  AT K=   1, I=   1, J=  31
     1 CALLS TO GCG PACKAGE FOR TRANSPORT TIME STEP   3 IN FLOW TIME STEP 383 STRESS PERIOD   1
     6 TOTAL ITERATIONS
 
 SOLVING FOR HEAD 
 FLOW MODEL IS TRANSIENT
 FLOW MODEL CONTAINS CONSTANT-HEAD CELLS


 MAXIMUM STEPSIZE DURING WHICH ANY PARTICLE CANNOT MOVE MORE THAN ONE CELL
 =  5.564    (WHEN MIN. R.F.=1)  AT K=   4, I=   1, J=  47

 MAXIMUM STEPSIZE WHICH MEETS STABILITY CRITERION OF THE ADVECTION TERM
 (FOR PURE FINITE-DIFFERENCE OPTION, MIXELM=0) 
 =  4.072    (WHEN MIN. R.F.=1)  AT K=   2, I=   1, J=  40


 TOTAL NUMBER OF POINT SOURCES/SINKS PRESENT IN THE FLOW MODEL =    62

 MAXIMUM STEPSIZE WHICH MEETS STABILITY CRITERION OF THE SINK & SOURCE TERM
 =  185.8    (WHEN MIN. R.F.=1)  AT K=   2, I=   1, J= 120

 MAXIMUM STEPSIZE WHICH MEETS STABILITY CRITERION OF THE DISPERSION TERM
 =  20.29    (WHEN MIN. R.F.=1)  AT K=   1, I=   1, J=  31
     1 CALLS TO GCG PACKAGE FOR TRANSPORT TIME STEP   4 IN FLOW TIME STEP 383 STRESS PERIOD   1
     4 TOTAL ITERATIONS
  MAXIMUM CONCENTRATION CHANGES FOR EACH ITERATION:
  MAX. CHANGE LAYER,ROW,COL MAX. CHANGE LAYER,ROW,COL MAX. CHANGE LAYER,ROW,COL MAX. CHANGE LAYER,ROW,COL MAX. CHANGE LAYER,ROW,COL
 ------------------------------------------------------------------------------------------------------------------------------------
   0.3943E-02 (  2,  1, 83)  0.1958E-04 (  3,  1, 78)  0.1279E-06 (  2,  1, 77)  0.1212E-08 (  3,  1, 77)


                                          ================================================
                                                         FROM TIME =   3830.0     TO    3840.0    

 
 SOLVING FOR HEAD 
 FLOW MODEL IS TRANSIENT
 FLOW MODEL CONTAINS CONSTANT-HEAD CELLS


 MAXIMUM STEPSIZE DURING WHICH ANY PARTICLE CANNOT MOVE MORE THAN ONE CELL
 =  5.537    (WHEN MIN. R.F.=1)  AT K=   4, I=   1, J=  47

 MAXIMUM STEPSIZE WHICH MEETS STABILITY CRITERION OF THE ADVECTION TERM
 (FOR PURE FINITE-DIFFERENCE OPTION, MIXELM=0) 
 =  4.069    (WHEN MIN. R.F.=1)  AT K=   2, I=   1, J=  40


 TOTAL NUMBER OF POINT SOURCES/SINKS PRESENT IN THE FLOW MODEL =    62

 MAXIMUM STEPSIZE WHICH MEETS STABILITY CRITERION OF THE SINK & SOURCE TERM
 =  196.9    (WHEN MIN. R.F.=1)  AT K=   2, I=   1, J= 120

 MAXIMUM STEPSIZE WHICH MEETS STABILITY CRITERION OF THE DISPERSION TERM
 =  20.29    (WHEN MIN. R.F.=1)  AT K=   1, I=   1, J=  31


     1 CALLS TO GCG PACKAGE FOR TRANSPORT TIME STEP   1 IN FLOW TIME STEP 384 STRESS PERIOD   1
     6 TOTAL ITERATIONS

 NO OUTPUT CONTROL FOR STRESS PERIOD    1   TIME STEP 384
 
 SOLVING FOR HEAD 
 FLOW MODEL IS TRANSIENT
 FLOW MODEL CONTAINS CONSTANT-HEAD CELLS


 MAXIMUM STEPSIZE DURING WHICH ANY PARTICLE CANNOT MOVE MORE THAN ONE CELL
 =  5.354    (WHEN MIN. R.F.=1)  AT K=   4, I=   1, J=  47

 MAXIMUM STEPSIZE WHICH MEETS STABILITY CRITERION OF THE ADVECTION TERM
 (FOR PURE FINITE-DIFFERENCE OPTION, MIXELM=0) 
 =  4.014    (WHEN MIN. R.F.=1)  AT K=   2, I=   1, J=  81


 TOTAL NUMBER OF POINT SOURCES/SINKS PRESENT IN THE FLOW MODEL =    62

 MAXIMUM STEPSIZE WHICH MEETS STABILITY CRITERION OF THE SINK & SOURCE TERM
 =  179.7    (WHEN MIN. R.F.=1)  AT K=   2, I=   1, J= 120

 MAXIMUM STEPSIZE WHICH MEETS STABILITY CRITERION OF THE DISPERSION TERM
 =  20.29    (WHEN MIN. R.F.=1)  AT K=   1, I=   1, J=  31
     1 CALLS TO GCG PACKAGE FOR TRANSPORT TIME STEP   2 IN FLOW TIME STEP 384 STRESS PERIOD   1
     6 TOTAL ITERATIONS
 
 SOLVING FOR HEAD 
 FLOW MODEL IS TRANSIENT
 FLOW MODEL CONTAINS CONSTANT-HEAD CELLS


 MAXIMUM STEPSIZE DURING WHICH ANY PARTICLE CANNOT MOVE MORE THAN ONE CELL
 =  5.234    (WHEN MIN. R.F.=1)  AT K=   4, I=   1, J=  74

 MAXIMUM STEPSIZE WHICH MEETS STABILITY CRITERION OF THE ADVECTION TERM
 (FOR PURE FINITE-DIFFERENCE OPTION, MIXELM=0) 
 =  3.875    (WHEN MIN. R.F.=1)  AT K=   2, I=   1, J=  81


 TOTAL NUMBER OF POINT SOURCES/SINKS PRESENT IN THE FLOW MODEL =    62

 MAXIMUM STEPSIZE WHICH MEETS STABILITY CRITERION OF THE SINK & SOURCE TERM
 =  171.0    (WHEN MIN. R.F.=1)  AT K=   2, I=   1, J= 120

 MAXIMUM STEPSIZE WHICH MEETS STABILITY CRITERION OF THE DISPERSION TERM
 =  20.29    (WHEN MIN. R.F.=1)  AT K=   1, I=   1, J=  31
     1 CALLS TO GCG PACKAGE FOR TRANSPORT TIME STEP   3 IN FLOW TIME STEP 384 STRESS PERIOD   1
     6 TOTAL ITERATIONS
 
 SOLVING FOR HEAD 
 FLOW MODEL IS TRANSIENT
 FLOW MODEL CONTAINS CONSTANT-HEAD CELLS


 MAXIMUM STEPSIZE DURING WHICH ANY PARTICLE CANNOT MOVE MORE THAN ONE CELL
 =  5.098    (WHEN MIN. R.F.=1)  AT K=   4, I=   1, J=  74

 MAXIMUM STEPSIZE WHICH MEETS STABILITY CRITERION OF THE ADVECTION TERM
 (FOR PURE FINITE-DIFFERENCE OPTION, MIXELM=0) 
 =  3.902    (WHEN MIN. R.F.=1)  AT K=   2, I=   1, J=  41


 TOTAL NUMBER OF POINT SOURCES/SINKS PRESENT IN THE FLOW MODEL =    62

 MAXIMUM STEPSIZE WHICH MEETS STABILITY CRITERION OF THE SINK & SOURCE TERM
 =  163.0    (WHEN MIN. R.F.=1)  AT K=   2, I=   1, J= 120

 MAXIMUM STEPSIZE WHICH MEETS STABILITY CRITERION OF THE DISPERSION TERM
 =  20.29    (WHEN MIN. R.F.=1)  AT K=   1, I=   1, J=  31
     1 CALLS TO GCG PACKAGE FOR TRANSPORT TIME STEP   4 IN FLOW TIME STEP 384 STRESS PERIOD   1
     4 TOTAL ITERATIONS
  MAXIMUM CONCENTRATION CHANGES FOR EACH ITERATION:
  MAX. CHANGE LAYER,ROW,COL MAX. CHANGE LAYER,ROW,COL MAX. CHANGE LAYER,ROW,COL MAX. CHANGE LAYER,ROW,COL MAX. CHANGE LAYER,ROW,COL
 ------------------------------------------------------------------------------------------------------------------------------------
   0.1160E-01 (  2,  1, 82)  0.1536E-03 (  2,  1, 82)  0.2820E-05 (  2,  1, 83)  0.5389E-07 (  3,  1, 83)


                                          ================================================
                                                         FROM TIME =   3840.0     TO    3850.0    

 
 SOLVING FOR HEAD 
 FLOW MODEL IS TRANSIENT
 FLOW MODEL CONTAINS CONSTANT-HEAD CELLS


 MAXIMUM STEPSIZE DURING WHICH ANY PARTICLE CANNOT MOVE MORE THAN ONE CELL
 =  5.067    (WHEN MIN. R.F.=1)  AT K=   4, I=   1, J=  74

 MAXIMUM STEPSIZE WHICH MEETS STABILITY CRITERION OF THE ADVECTION TERM
 (FOR PURE FINITE-DIFFERENCE OPTION, MIXELM=0) 
 =  3.861    (WHEN MIN. R.F.=1)  AT K=   2, I=   1, J=  41


 TOTAL NUMBER OF POINT SOURCES/SINKS PRESENT IN THE FLOW MODEL =    62

 MAXIMUM STEPSIZE WHICH MEETS STABILITY CRITERION OF THE SINK & SOURCE TERM
 =  164.6    (WHEN MIN. R.F.=1)  AT K=   2, I=   1, J= 120

 MAXIMUM STEPSIZE WHICH MEETS STABILITY CRITERION OF THE DISPERSION TERM
 =  20.29    (WHEN MIN. R.F.=1)  AT K=   1, I=   1, J=  31


     1 CALLS TO GCG PACKAGE FOR TRANSPORT TIME STEP   1 IN FLOW TIME STEP 385 STRESS PERIOD   1
     6 TOTAL ITERATIONS

 NO OUTPUT CONTROL FOR STRESS PERIOD    1   TIME STEP 385
 
 SOLVING FOR HEAD 
 FLOW MODEL IS TRANSIENT
 FLOW MODEL CONTAINS CONSTANT-HEAD CELLS


 MAXIMUM STEPSIZE DURING WHICH ANY PARTICLE CANNOT MOVE MORE THAN ONE CELL
 =  4.992    (WHEN MIN. R.F.=1)  AT K=   4, I=   1, J=  74

 MAXIMUM STEPSIZE WHICH MEETS STABILITY CRITERION OF THE ADVECTION TERM
 (FOR PURE FINITE-DIFFERENCE OPTION, MIXELM=0) 
 =  3.821    (WHEN MIN. R.F.=1)  AT K=   2, I=   1, J=  41


 TOTAL NUMBER OF POINT SOURCES/SINKS PRESENT IN THE FLOW MODEL =    62

 MAXIMUM STEPSIZE WHICH MEETS STABILITY CRITERION OF THE SINK & SOURCE TERM
 =  153.5    (WHEN MIN. R.F.=1)  AT K=   2, I=   1, J= 120

 MAXIMUM STEPSIZE WHICH MEETS STABILITY CRITERION OF THE DISPERSION TERM
 =  20.29    (WHEN MIN. R.F.=1)  AT K=   1, I=   1, J=  31
     1 CALLS TO GCG PACKAGE FOR TRANSPORT TIME STEP   2 IN FLOW TIME STEP 385 STRESS PERIOD   1
     6 TOTAL ITERATIONS
 
 SOLVING FOR HEAD 
 FLOW MODEL IS TRANSIENT
 FLOW MODEL CONTAINS CONSTANT-HEAD CELLS


 MAXIMUM STEPSIZE DURING WHICH ANY PARTICLE CANNOT MOVE MORE THAN ONE CELL
 =  4.959    (WHEN MIN. R.F.=1)  AT K=   4, I=   1, J=  74

 MAXIMUM STEPSIZE WHICH MEETS STABILITY CRITERION OF THE ADVECTION TERM
 (FOR PURE FINITE-DIFFERENCE OPTION, MIXELM=0) 
 =  3.645    (WHEN MIN. R.F.=1)  AT K=   2, I=   1, J=  80


 TOTAL NUMBER OF POINT SOURCES/SINKS PRESENT IN THE FLOW MODEL =    62

 MAXIMUM STEPSIZE WHICH MEETS STABILITY CRITERION OF THE SINK & SOURCE TERM
 =  151.0    (WHEN MIN. R.F.=1)  AT K=   2, I=   1, J= 120

 MAXIMUM STEPSIZE WHICH MEETS STABILITY CRITERION OF THE DISPERSION TERM
 =  20.29    (WHEN MIN. R.F.=1)  AT K=   1, I=   1, J=  31
     1 CALLS TO GCG PACKAGE FOR TRANSPORT TIME STEP   3 IN FLOW TIME STEP 385 STRESS PERIOD   1
     6 TOTAL ITERATIONS
 
 SOLVING FOR HEAD 
 FLOW MODEL IS TRANSIENT
 FLOW MODEL CONTAINS CONSTANT-HEAD CELLS


 MAXIMUM STEPSIZE DURING WHICH ANY PARTICLE CANNOT MOVE MORE THAN ONE CELL
 =  4.965    (WHEN MIN. R.F.=1)  AT K=   4, I=   1, J=  74

 MAXIMUM STEPSIZE WHICH MEETS STABILITY CRITERION OF THE ADVECTION TERM
 (FOR PURE FINITE-DIFFERENCE OPTION, MIXELM=0) 
 =  3.604    (WHEN MIN. R.F.=1)  AT K=   2, I=   1, J=  80


 TOTAL NUMBER OF POINT SOURCES/SINKS PRESENT IN THE FLOW MODEL =    62

 MAXIMUM STEPSIZE WHICH MEETS STABILITY CRITERION OF THE SINK & SOURCE TERM
 =  147.4    (WHEN MIN. R.F.=1)  AT K=   2, I=   1, J= 120

 MAXIMUM STEPSIZE WHICH MEETS STABILITY CRITERION OF THE DISPERSION TERM
 =  20.29    (WHEN MIN. R.F.=1)  AT K=   1, I=   1, J=  31
     1 CALLS TO GCG PACKAGE FOR TRANSPORT TIME STEP   4 IN FLOW TIME STEP 385 STRESS PERIOD   1
     5 TOTAL ITERATIONS
  MAXIMUM CONCENTRATION CHANGES FOR EACH ITERATION:
  MAX. CHANGE LAYER,ROW,COL MAX. CHANGE LAYER,ROW,COL MAX. CHANGE LAYER,ROW,COL MAX. CHANGE LAYER,ROW,COL MAX. CHANGE LAYER,ROW,COL
 ------------------------------------------------------------------------------------------------------------------------------------
   0.1581E-01 (  2,  1, 81)  0.3015E-03 (  2,  1, 81)  0.1096E-04 (  3,  1, 79)  0.3153E-06 (  3,  1, 45)  0.8141E-08 (  4,  1, 77)


                                          ================================================
                                                         FROM TIME =   3850.0     TO    3860.0    

 
 SOLVING FOR HEAD 
 FLOW MODEL IS TRANSIENT
 FLOW MODEL CONTAINS CONSTANT-HEAD CELLS


 MAXIMUM STEPSIZE DURING WHICH ANY PARTICLE CANNOT MOVE MORE THAN ONE CELL
 =  4.984    (WHEN MIN. R.F.=1)  AT K=   4, I=   1, J=  74

 MAXIMUM STEPSIZE WHICH MEETS STABILITY CRITERION OF THE ADVECTION TERM
 (FOR PURE FINITE-DIFFERENCE OPTION, MIXELM=0) 
 =  3.651    (WHEN MIN. R.F.=1)  AT K=   2, I=   1, J=  80


 TOTAL NUMBER OF POINT SOURCES/SINKS PRESENT IN THE FLOW MODEL =    62

 MAXIMUM STEPSIZE WHICH MEETS STABILITY CRITERION OF THE SINK & SOURCE TERM
 =  151.8    (WHEN MIN. R.F.=1)  AT K=   2, I=   1, J= 120

 MAXIMUM STEPSIZE WHICH MEETS STABILITY CRITERION OF THE DISPERSION TERM
 =  20.29    (WHEN MIN. R.F.=1)  AT K=   1, I=   1, J=  31


     1 CALLS TO GCG PACKAGE FOR TRANSPORT TIME STEP   1 IN FLOW TIME STEP 386 STRESS PERIOD   1
     6 TOTAL ITERATIONS

 NO OUTPUT CONTROL FOR STRESS PERIOD    1   TIME STEP 386
 
 SOLVING FOR HEAD 
 FLOW MODEL IS TRANSIENT
 FLOW MODEL CONTAINS CONSTANT-HEAD CELLS


 MAXIMUM STEPSIZE DURING WHICH ANY PARTICLE CANNOT MOVE MORE THAN ONE CELL
 =  5.050    (WHEN MIN. R.F.=1)  AT K=   4, I=   1, J=  74

 MAXIMUM STEPSIZE WHICH MEETS STABILITY CRITERION OF THE ADVECTION TERM
 (FOR PURE FINITE-DIFFERENCE OPTION, MIXELM=0) 
 =  3.782    (WHEN MIN. R.F.=1)  AT K=   2, I=   1, J=  42


 TOTAL NUMBER OF POINT SOURCES/SINKS PRESENT IN THE FLOW MODEL =    62

 MAXIMUM STEPSIZE WHICH MEETS STABILITY CRITERION OF THE SINK & SOURCE TERM
 =  144.1    (WHEN MIN. R.F.=1)  AT K=   2, I=   1, J= 120

 MAXIMUM STEPSIZE WHICH MEETS STABILITY CRITERION OF THE DISPERSION TERM
 =  20.29    (WHEN MIN. R.F.=1)  AT K=   1, I=   1, J=  31
     1 CALLS TO GCG PACKAGE FOR TRANSPORT TIME STEP   2 IN FLOW TIME STEP 386 STRESS PERIOD   1
     6 TOTAL ITERATIONS
 
 SOLVING FOR HEAD 
 FLOW MODEL IS TRANSIENT
 FLOW MODEL CONTAINS CONSTANT-HEAD CELLS


 MAXIMUM STEPSIZE DURING WHICH ANY PARTICLE CANNOT MOVE MORE THAN ONE CELL
 =  5.109    (WHEN MIN. R.F.=1)  AT K=   5, I=   1, J=  74

 MAXIMUM STEPSIZE WHICH MEETS STABILITY CRITERION OF THE ADVECTION TERM
 (FOR PURE FINITE-DIFFERENCE OPTION, MIXELM=0) 
 =  3.759    (WHEN MIN. R.F.=1)  AT K=   2, I=   1, J=  42


 TOTAL NUMBER OF POINT SOURCES/SINKS PRESENT IN THE FLOW MODEL =    62

 MAXIMUM STEPSIZE WHICH MEETS STABILITY CRITERION OF THE SINK & SOURCE TERM
 =  140.6    (WHEN MIN. R.F.=1)  AT K=   2, I=   1, J= 120

 MAXIMUM STEPSIZE WHICH MEETS STABILITY CRITERION OF THE DISPERSION TERM
 =  20.29    (WHEN MIN. R.F.=1)  AT K=   1, I=   1, J=  31
     1 CALLS TO GCG PACKAGE FOR TRANSPORT TIME STEP   3 IN FLOW TIME STEP 386 STRESS PERIOD   1
     6 TOTAL ITERATIONS
 
 SOLVING FOR HEAD 
 FLOW MODEL IS TRANSIENT
 FLOW MODEL CONTAINS CONSTANT-HEAD CELLS


 MAXIMUM STEPSIZE DURING WHICH ANY PARTICLE CANNOT MOVE MORE THAN ONE CELL
 =  5.186    (WHEN MIN. R.F.=1)  AT K=   5, I=   1, J=  74

 MAXIMUM STEPSIZE WHICH MEETS STABILITY CRITERION OF THE ADVECTION TERM
 (FOR PURE FINITE-DIFFERENCE OPTION, MIXELM=0) 
 =  3.604    (WHEN MIN. R.F.=1)  AT K=   2, I=   1, J=  79


 TOTAL NUMBER OF POINT SOURCES/SINKS PRESENT IN THE FLOW MODEL =    62

 MAXIMUM STEPSIZE WHICH MEETS STABILITY CRITERION OF THE SINK & SOURCE TERM
 =  138.4    (WHEN MIN. R.F.=1)  AT K=   2, I=   1, J= 120

 MAXIMUM STEPSIZE WHICH MEETS STABILITY CRITERION OF THE DISPERSION TERM
 =  20.29    (WHEN MIN. R.F.=1)  AT K=   1, I=   1, J=  31
     1 CALLS TO GCG PACKAGE FOR TRANSPORT TIME STEP   4 IN FLOW TIME STEP 386 STRESS PERIOD   1
     5 TOTAL ITERATIONS
  MAXIMUM CONCENTRATION CHANGES FOR EACH ITERATION:
  MAX. CHANGE LAYER,ROW,COL MAX. CHANGE LAYER,ROW,COL MAX. CHANGE LAYER,ROW,COL MAX. CHANGE LAYER,ROW,COL MAX. CHANGE LAYER,ROW,COL
 ------------------------------------------------------------------------------------------------------------------------------------
   0.1866E-01 (  2,  1, 46)  0.5104E-03 (  2,  1, 79)  0.1860E-04 (  3,  1, 43)  0.1078E-05 (  3,  1, 76)  0.3168E-07 (  4,  1, 76)


                                          ================================================
                                                         FROM TIME =   3860.0     TO    3870.0    

 
 SOLVING FOR HEAD 
 FLOW MODEL IS TRANSIENT
 FLOW MODEL CONTAINS CONSTANT-HEAD CELLS


 MAXIMUM STEPSIZE DURING WHICH ANY PARTICLE CANNOT MOVE MORE THAN ONE CELL
 =  5.251    (WHEN MIN. R.F.=1)  AT K=   5, I=   1, J=  74

 MAXIMUM STEPSIZE WHICH MEETS STABILITY CRITERION OF THE ADVECTION TERM
 (FOR PURE FINITE-DIFFERENCE OPTION, MIXELM=0) 
 =  3.579    (WHEN MIN. R.F.=1)  AT K=   2, I=   1, J=  79


 TOTAL NUMBER OF POINT SOURCES/SINKS PRESENT IN THE FLOW MODEL =    62

 MAXIMUM STEPSIZE WHICH MEETS STABILITY CRITERION OF THE SINK & SOURCE TERM
 =  141.4    (WHEN MIN. R.F.=1)  AT K=   2, I=   1, J= 120

 MAXIMUM STEPSIZE WHICH MEETS STABILITY CRITERION OF THE DISPERSION TERM
 =  20.29    (WHEN MIN. R.F.=1)  AT K=   1, I=   1, J=  31


     1 CALLS TO GCG PACKAGE FOR TRANSPORT TIME STEP   1 IN FLOW TIME STEP 387 STRESS PERIOD   1
     6 TOTAL ITERATIONS

 NO OUTPUT CONTROL FOR STRESS PERIOD    1   TIME STEP 387
 
 SOLVING FOR HEAD 
 FLOW MODEL IS TRANSIENT
 FLOW MODEL CONTAINS CONSTANT-HEAD CELLS


 MAXIMUM STEPSIZE DURING WHICH ANY PARTICLE CANNOT MOVE MORE THAN ONE CELL
 =  5.376    (WHEN MIN. R.F.=1)  AT K=   5, I=   1, J=  74

 MAXIMUM STEPSIZE WHICH MEETS STABILITY CRITERION OF THE ADVECTION TERM
 (FOR PURE FINITE-DIFFERENCE OPTION, MIXELM=0) 
 =  3.622    (WHEN MIN. R.F.=1)  AT K=   2, I=   1, J=  79


 TOTAL NUMBER OF POINT SOURCES/SINKS PRESENT IN THE FLOW MODEL =    62

 MAXIMUM STEPSIZE WHICH MEETS STABILITY CRITERION OF THE SINK & SOURCE TERM
 =  137.6    (WHEN MIN. R.F.=1)  AT K=   2, I=   1, J= 120

 MAXIMUM STEPSIZE WHICH MEETS STABILITY CRITERION OF THE DISPERSION TERM
 =  20.29    (WHEN MIN. R.F.=1)  AT K=   1, I=   1, J=  31
     1 CALLS TO GCG PACKAGE FOR TRANSPORT TIME STEP   2 IN FLOW TIME STEP 387 STRESS PERIOD   1
     6 TOTAL ITERATIONS
 
 SOLVING FOR HEAD 
 FLOW MODEL IS TRANSIENT
 FLOW MODEL CONTAINS CONSTANT-HEAD CELLS


 MAXIMUM STEPSIZE DURING WHICH ANY PARTICLE CANNOT MOVE MORE THAN ONE CELL
 =  5.498    (WHEN MIN. R.F.=1)  AT K=   6, I=   1, J=  74

 MAXIMUM STEPSIZE WHICH MEETS STABILITY CRITERION OF THE ADVECTION TERM
 (FOR PURE FINITE-DIFFERENCE OPTION, MIXELM=0) 
 =  3.813    (WHEN MIN. R.F.=1)  AT K=   2, I=   1, J=  79


 TOTAL NUMBER OF POINT SOURCES/SINKS PRESENT IN THE FLOW MODEL =    62

 MAXIMUM STEPSIZE WHICH MEETS STABILITY CRITERION OF THE SINK & SOURCE TERM
 =  137.0    (WHEN MIN. R.F.=1)  AT K=   2, I=   1, J= 120

 MAXIMUM STEPSIZE WHICH MEETS STABILITY CRITERION OF THE DISPERSION TERM
 =  20.29    (WHEN MIN. R.F.=1)  AT K=   1, I=   1, J=  31
     1 CALLS TO GCG PACKAGE FOR TRANSPORT TIME STEP   3 IN FLOW TIME STEP 387 STRESS PERIOD   1
     6 TOTAL ITERATIONS
 
 SOLVING FOR HEAD 
 FLOW MODEL IS TRANSIENT
 FLOW MODEL CONTAINS CONSTANT-HEAD CELLS


 MAXIMUM STEPSIZE DURING WHICH ANY PARTICLE CANNOT MOVE MORE THAN ONE CELL
 =  5.619    (WHEN MIN. R.F.=1)  AT K=   6, I=   1, J=  74

 MAXIMUM STEPSIZE WHICH MEETS STABILITY CRITERION OF THE ADVECTION TERM
 (FOR PURE FINITE-DIFFERENCE OPTION, MIXELM=0) 
 =  3.800    (WHEN MIN. R.F.=1)  AT K=   2, I=   1, J=  43


 TOTAL NUMBER OF POINT SOURCES/SINKS PRESENT IN THE FLOW MODEL =    62

 MAXIMUM STEPSIZE WHICH MEETS STABILITY CRITERION OF THE SINK & SOURCE TERM
 =  134.6    (WHEN MIN. R.F.=1)  AT K=   2, I=   1, J= 120

 MAXIMUM STEPSIZE WHICH MEETS STABILITY CRITERION OF THE DISPERSION TERM
 =  20.29    (WHEN MIN. R.F.=1)  AT K=   1, I=   1, J=  31
     1 CALLS TO GCG PACKAGE FOR TRANSPORT TIME STEP   4 IN FLOW TIME STEP 387 STRESS PERIOD   1
     5 TOTAL ITERATIONS
  MAXIMUM CONCENTRATION CHANGES FOR EACH ITERATION:
  MAX. CHANGE LAYER,ROW,COL MAX. CHANGE LAYER,ROW,COL MAX. CHANGE LAYER,ROW,COL MAX. CHANGE LAYER,ROW,COL MAX. CHANGE LAYER,ROW,COL
 ------------------------------------------------------------------------------------------------------------------------------------
   0.2222E-01 (  2,  1, 80)  0.7208E-03 (  2,  1, 78)  0.2576E-04 (  3,  1, 78)  0.9894E-06 (  3,  1, 76)  0.3449E-07 (  3,  1, 77)


                                          ================================================
                                                         FROM TIME =   3870.0     TO    3880.0    

 
 SOLVING FOR HEAD 
 FLOW MODEL IS TRANSIENT
 FLOW MODEL CONTAINS CONSTANT-HEAD CELLS


 MAXIMUM STEPSIZE DURING WHICH ANY PARTICLE CANNOT MOVE MORE THAN ONE CELL
 =  5.723    (WHEN MIN. R.F.=1)  AT K=   6, I=   1, J=  74

 MAXIMUM STEPSIZE WHICH MEETS STABILITY CRITERION OF THE ADVECTION TERM
 (FOR PURE FINITE-DIFFERENCE OPTION, MIXELM=0) 
 =  3.810    (WHEN MIN. R.F.=1)  AT K=   2, I=   1, J=  43


 TOTAL NUMBER OF POINT SOURCES/SINKS PRESENT IN THE FLOW MODEL =    62

 MAXIMUM STEPSIZE WHICH MEETS STABILITY CRITERION OF THE SINK & SOURCE TERM
 =  135.2    (WHEN MIN. R.F.=1)  AT K=   2, I=   1, J= 120

 MAXIMUM STEPSIZE WHICH MEETS STABILITY CRITERION OF THE DISPERSION TERM
 =  20.29    (WHEN MIN. R.F.=1)  AT K=   1, I=   1, J=  31


     1 CALLS TO GCG PACKAGE FOR TRANSPORT TIME STEP   1 IN FLOW TIME STEP 388 STRESS PERIOD   1
     6 TOTAL ITERATIONS

 NO OUTPUT CONTROL FOR STRESS PERIOD    1   TIME STEP 388
 
 SOLVING FOR HEAD 
 FLOW MODEL IS TRANSIENT
 FLOW MODEL CONTAINS CONSTANT-HEAD CELLS


 MAXIMUM STEPSIZE DURING WHICH ANY PARTICLE CANNOT MOVE MORE THAN ONE CELL
 =  5.869    (WHEN MIN. R.F.=1)  AT K=   7, I=   1, J=  74

 MAXIMUM STEPSIZE WHICH MEETS STABILITY CRITERION OF THE ADVECTION TERM
 (FOR PURE FINITE-DIFFERENCE OPTION, MIXELM=0) 
 =  3.684    (WHEN MIN. R.F.=1)  AT K=   2, I=   1, J=  78


 TOTAL NUMBER OF POINT SOURCES/SINKS PRESENT IN THE FLOW MODEL =    62

 MAXIMUM STEPSIZE WHICH MEETS STABILITY CRITERION OF THE SINK & SOURCE TERM
 =  131.7    (WHEN MIN. R.F.=1)  AT K=   2, I=   1, J= 120

 MAXIMUM STEPSIZE WHICH MEETS STABILITY CRITERION OF THE DISPERSION TERM
 =  20.29    (WHEN MIN. R.F.=1)  AT K=   1, I=   1, J=  31
     1 CALLS TO GCG PACKAGE FOR TRANSPORT TIME STEP   2 IN FLOW TIME STEP 388 STRESS PERIOD   1
     6 TOTAL ITERATIONS
 
 SOLVING FOR HEAD 
 FLOW MODEL IS TRANSIENT
 FLOW MODEL CONTAINS CONSTANT-HEAD CELLS


 MAXIMUM STEPSIZE DURING WHICH ANY PARTICLE CANNOT MOVE MORE THAN ONE CELL
 =  5.955    (WHEN MIN. R.F.=1)  AT K=  28, I=   1, J=  67

 MAXIMUM STEPSIZE WHICH MEETS STABILITY CRITERION OF THE ADVECTION TERM
 (FOR PURE FINITE-DIFFERENCE OPTION, MIXELM=0) 
 =  3.671    (WHEN MIN. R.F.=1)  AT K=   2, I=   1, J=  78


 TOTAL NUMBER OF POINT SOURCES/SINKS PRESENT IN THE FLOW MODEL =    62

 MAXIMUM STEPSIZE WHICH MEETS STABILITY CRITERION OF THE SINK & SOURCE TERM
 =  130.1    (WHEN MIN. R.F.=1)  AT K=   2, I=   1, J= 120

 MAXIMUM STEPSIZE WHICH MEETS STABILITY CRITERION OF THE DISPERSION TERM
 =  20.29    (WHEN MIN. R.F.=1)  AT K=   1, I=   1, J=  31
     1 CALLS TO GCG PACKAGE FOR TRANSPORT TIME STEP   3 IN FLOW TIME STEP 388 STRESS PERIOD   1
     6 TOTAL ITERATIONS
 
 SOLVING FOR HEAD 
 FLOW MODEL IS TRANSIENT
 FLOW MODEL CONTAINS CONSTANT-HEAD CELLS


 MAXIMUM STEPSIZE DURING WHICH ANY PARTICLE CANNOT MOVE MORE THAN ONE CELL
 =  5.969    (WHEN MIN. R.F.=1)  AT K=  28, I=   1, J=  67

 MAXIMUM STEPSIZE WHICH MEETS STABILITY CRITERION OF THE ADVECTION TERM
 (FOR PURE FINITE-DIFFERENCE OPTION, MIXELM=0) 
 =  3.771    (WHEN MIN. R.F.=1)  AT K=   2, I=   1, J=  78


 TOTAL NUMBER OF POINT SOURCES/SINKS PRESENT IN THE FLOW MODEL =    62

 MAXIMUM STEPSIZE WHICH MEETS STABILITY CRITERION OF THE SINK & SOURCE TERM
 =  129.2    (WHEN MIN. R.F.=1)  AT K=   2, I=   1, J= 120

 MAXIMUM STEPSIZE WHICH MEETS STABILITY CRITERION OF THE DISPERSION TERM
 =  20.29    (WHEN MIN. R.F.=1)  AT K=   1, I=   1, J=  31
     1 CALLS TO GCG PACKAGE FOR TRANSPORT TIME STEP   4 IN FLOW TIME STEP 388 STRESS PERIOD   1
     5 TOTAL ITERATIONS
  MAXIMUM CONCENTRATION CHANGES FOR EACH ITERATION:
  MAX. CHANGE LAYER,ROW,COL MAX. CHANGE LAYER,ROW,COL MAX. CHANGE LAYER,ROW,COL MAX. CHANGE LAYER,ROW,COL MAX. CHANGE LAYER,ROW,COL
 ------------------------------------------------------------------------------------------------------------------------------------
   0.1909E-01 (  2,  1, 79)  0.3971E-03 (  2,  1, 77)  0.1369E-04 (  3,  1, 77)  0.4947E-06 (  3,  1, 80)  0.1398E-07 (  4,  1, 79)


                                          ================================================
                                                         FROM TIME =   3880.0     TO    3890.0    

 
 SOLVING FOR HEAD 
 FLOW MODEL IS TRANSIENT
 FLOW MODEL CONTAINS CONSTANT-HEAD CELLS


 MAXIMUM STEPSIZE DURING WHICH ANY PARTICLE CANNOT MOVE MORE THAN ONE CELL
 =  5.979    (WHEN MIN. R.F.=1)  AT K=  28, I=   1, J=  67

 MAXIMUM STEPSIZE WHICH MEETS STABILITY CRITERION OF THE ADVECTION TERM
 (FOR PURE FINITE-DIFFERENCE OPTION, MIXELM=0) 
 =  3.900    (WHEN MIN. R.F.=1)  AT K=   2, I=   1, J=  78


 TOTAL NUMBER OF POINT SOURCES/SINKS PRESENT IN THE FLOW MODEL =    62

 MAXIMUM STEPSIZE WHICH MEETS STABILITY CRITERION OF THE SINK & SOURCE TERM
 =  130.3    (WHEN MIN. R.F.=1)  AT K=   2, I=   1, J= 120

 MAXIMUM STEPSIZE WHICH MEETS STABILITY CRITERION OF THE DISPERSION TERM
 =  20.29    (WHEN MIN. R.F.=1)  AT K=   1, I=   1, J=  31


     1 CALLS TO GCG PACKAGE FOR TRANSPORT TIME STEP   1 IN FLOW TIME STEP 389 STRESS PERIOD   1
     6 TOTAL ITERATIONS

 NO OUTPUT CONTROL FOR STRESS PERIOD    1   TIME STEP 389
 
 SOLVING FOR HEAD 
 FLOW MODEL IS TRANSIENT
 FLOW MODEL CONTAINS CONSTANT-HEAD CELLS


 MAXIMUM STEPSIZE DURING WHICH ANY PARTICLE CANNOT MOVE MORE THAN ONE CELL
 =  5.993    (WHEN MIN. R.F.=1)  AT K=  28, I=   1, J=  67

 MAXIMUM STEPSIZE WHICH MEETS STABILITY CRITERION OF THE ADVECTION TERM
 (FOR PURE FINITE-DIFFERENCE OPTION, MIXELM=0) 
 =  3.969    (WHEN MIN. R.F.=1)  AT K=   2, I=   1, J=  44


 TOTAL NUMBER OF POINT SOURCES/SINKS PRESENT IN THE FLOW MODEL =    62

 MAXIMUM STEPSIZE WHICH MEETS STABILITY CRITERION OF THE SINK & SOURCE TERM
 =  126.8    (WHEN MIN. R.F.=1)  AT K=   2, I=   1, J= 120

 MAXIMUM STEPSIZE WHICH MEETS STABILITY CRITERION OF THE DISPERSION TERM
 =  20.29    (WHEN MIN. R.F.=1)  AT K=   1, I=   1, J=  31
     1 CALLS TO GCG PACKAGE FOR TRANSPORT TIME STEP   2 IN FLOW TIME STEP 389 STRESS PERIOD   1
     6 TOTAL ITERATIONS
 
 SOLVING FOR HEAD 
 FLOW MODEL IS TRANSIENT
 FLOW MODEL CONTAINS CONSTANT-HEAD CELLS


 MAXIMUM STEPSIZE DURING WHICH ANY PARTICLE CANNOT MOVE MORE THAN ONE CELL
 =  6.006    (WHEN MIN. R.F.=1)  AT K=  28, I=   1, J=  67

 MAXIMUM STEPSIZE WHICH MEETS STABILITY CRITERION OF THE ADVECTION TERM
 (FOR PURE FINITE-DIFFERENCE OPTION, MIXELM=0) 
 =  3.974    (WHEN MIN. R.F.=1)  AT K=   2, I=   1, J=  44


 TOTAL NUMBER OF POINT SOURCES/SINKS PRESENT IN THE FLOW MODEL =    62

 MAXIMUM STEPSIZE WHICH MEETS STABILITY CRITERION OF THE SINK & SOURCE TERM
 =  125.4    (WHEN MIN. R.F.=1)  AT K=   2, I=   1, J= 120

 MAXIMUM STEPSIZE WHICH MEETS STABILITY CRITERION OF THE DISPERSION TERM
 =  20.29    (WHEN MIN. R.F.=1)  AT K=   1, I=   1, J=  31
     1 CALLS TO GCG PACKAGE FOR TRANSPORT TIME STEP   3 IN FLOW TIME STEP 389 STRESS PERIOD   1
     6 TOTAL ITERATIONS
 
 SOLVING FOR HEAD 
 FLOW MODEL IS TRANSIENT
 FLOW MODEL CONTAINS CONSTANT-HEAD CELLS


 MAXIMUM STEPSIZE DURING WHICH ANY PARTICLE CANNOT MOVE MORE THAN ONE CELL
 =  6.019    (WHEN MIN. R.F.=1)  AT K=  28, I=   1, J=  67

 MAXIMUM STEPSIZE WHICH MEETS STABILITY CRITERION OF THE ADVECTION TERM
 (FOR PURE FINITE-DIFFERENCE OPTION, MIXELM=0) 
 =  3.867    (WHEN MIN. R.F.=1)  AT K=   2, I=   1, J=  77


 TOTAL NUMBER OF POINT SOURCES/SINKS PRESENT IN THE FLOW MODEL =    62

 MAXIMUM STEPSIZE WHICH MEETS STABILITY CRITERION OF THE SINK & SOURCE TERM
 =  123.4    (WHEN MIN. R.F.=1)  AT K=   2, I=   1, J= 120

 MAXIMUM STEPSIZE WHICH MEETS STABILITY CRITERION OF THE DISPERSION TERM
 =  20.29    (WHEN MIN. R.F.=1)  AT K=   1, I=   1, J=  31
     1 CALLS TO GCG PACKAGE FOR TRANSPORT TIME STEP   4 IN FLOW TIME STEP 389 STRESS PERIOD   1
     5 TOTAL ITERATIONS
  MAXIMUM CONCENTRATION CHANGES FOR EACH ITERATION:
  MAX. CHANGE LAYER,ROW,COL MAX. CHANGE LAYER,ROW,COL MAX. CHANGE LAYER,ROW,COL MAX. CHANGE LAYER,ROW,COL MAX. CHANGE LAYER,ROW,COL
 ------------------------------------------------------------------------------------------------------------------------------------
   0.1358E-01 (  2,  1, 31)  0.3132E-03 (  2,  1, 77)  0.7238E-05 (  3,  1, 77)  0.2165E-06 (  3,  1, 42)  0.5937E-08 (  4,  1, 78)


                                          ================================================
                                                         FROM TIME =   3890.0     TO    3900.0    

 
 SOLVING FOR HEAD 
 FLOW MODEL IS TRANSIENT
 FLOW MODEL CONTAINS CONSTANT-HEAD CELLS


 MAXIMUM STEPSIZE DURING WHICH ANY PARTICLE CANNOT MOVE MORE THAN ONE CELL
 =  6.027    (WHEN MIN. R.F.=1)  AT K=  28, I=   1, J=  67

 MAXIMUM STEPSIZE WHICH MEETS STABILITY CRITERION OF THE ADVECTION TERM
 (FOR PURE FINITE-DIFFERENCE OPTION, MIXELM=0) 
 =  3.854    (WHEN MIN. R.F.=1)  AT K=   2, I=   1, J=  77


 TOTAL NUMBER OF POINT SOURCES/SINKS PRESENT IN THE FLOW MODEL =    62

 MAXIMUM STEPSIZE WHICH MEETS STABILITY CRITERION OF THE SINK & SOURCE TERM
 =  125.8    (WHEN MIN. R.F.=1)  AT K=   2, I=   1, J= 120

 MAXIMUM STEPSIZE WHICH MEETS STABILITY CRITERION OF THE DISPERSION TERM
 =  20.29    (WHEN MIN. R.F.=1)  AT K=   1, I=   1, J=  31


     1 CALLS TO GCG PACKAGE FOR TRANSPORT TIME STEP   1 IN FLOW TIME STEP 390 STRESS PERIOD   1
     6 TOTAL ITERATIONS

 NO OUTPUT CONTROL FOR STRESS PERIOD    1   TIME STEP 390
 
 SOLVING FOR HEAD 
 FLOW MODEL IS TRANSIENT
 FLOW MODEL CONTAINS CONSTANT-HEAD CELLS


 MAXIMUM STEPSIZE DURING WHICH ANY PARTICLE CANNOT MOVE MORE THAN ONE CELL
 =  6.040    (WHEN MIN. R.F.=1)  AT K=  28, I=   1, J=  67

 MAXIMUM STEPSIZE WHICH MEETS STABILITY CRITERION OF THE ADVECTION TERM
 (FOR PURE FINITE-DIFFERENCE OPTION, MIXELM=0) 
 =  3.888    (WHEN MIN. R.F.=1)  AT K=   2, I=   1, J=  77


 TOTAL NUMBER OF POINT SOURCES/SINKS PRESENT IN THE FLOW MODEL =    62

 MAXIMUM STEPSIZE WHICH MEETS STABILITY CRITERION OF THE SINK & SOURCE TERM
 =  121.5    (WHEN MIN. R.F.=1)  AT K=   2, I=   1, J= 120

 MAXIMUM STEPSIZE WHICH MEETS STABILITY CRITERION OF THE DISPERSION TERM
 =  20.29    (WHEN MIN. R.F.=1)  AT K=   1, I=   1, J=  31
     1 CALLS TO GCG PACKAGE FOR TRANSPORT TIME STEP   2 IN FLOW TIME STEP 390 STRESS PERIOD   1
     6 TOTAL ITERATIONS
 
 SOLVING FOR HEAD 
 FLOW MODEL IS TRANSIENT
 FLOW MODEL CONTAINS CONSTANT-HEAD CELLS


 MAXIMUM STEPSIZE DURING WHICH ANY PARTICLE CANNOT MOVE MORE THAN ONE CELL
 =  6.052    (WHEN MIN. R.F.=1)  AT K=  28, I=   1, J=  67

 MAXIMUM STEPSIZE WHICH MEETS STABILITY CRITERION OF THE ADVECTION TERM
 (FOR PURE FINITE-DIFFERENCE OPTION, MIXELM=0) 
 =  4.032    (WHEN MIN. R.F.=1)  AT K=   2, I=   1, J=  77


 TOTAL NUMBER OF POINT SOURCES/SINKS PRESENT IN THE FLOW MODEL =    62

 MAXIMUM STEPSIZE WHICH MEETS STABILITY CRITERION OF THE SINK & SOURCE TERM
 =  119.3    (WHEN MIN. R.F.=1)  AT K=   2, I=   1, J= 120

 MAXIMUM STEPSIZE WHICH MEETS STABILITY CRITERION OF THE DISPERSION TERM
 =  20.29    (WHEN MIN. R.F.=1)  AT K=   1, I=   1, J=  31
     1 CALLS TO GCG PACKAGE FOR TRANSPORT TIME STEP   3 IN FLOW TIME STEP 390 STRESS PERIOD   1
     6 TOTAL ITERATIONS
 
 SOLVING FOR HEAD 
 FLOW MODEL IS TRANSIENT
 FLOW MODEL CONTAINS CONSTANT-HEAD CELLS


 MAXIMUM STEPSIZE DURING WHICH ANY PARTICLE CANNOT MOVE MORE THAN ONE CELL
 =  6.064    (WHEN MIN. R.F.=1)  AT K=  28, I=   1, J=  67

 MAXIMUM STEPSIZE WHICH MEETS STABILITY CRITERION OF THE ADVECTION TERM
 (FOR PURE FINITE-DIFFERENCE OPTION, MIXELM=0) 
 =  4.383    (WHEN MIN. R.F.=1)  AT K=   2, I=   1, J=  45


 TOTAL NUMBER OF POINT SOURCES/SINKS PRESENT IN THE FLOW MODEL =    62

 MAXIMUM STEPSIZE WHICH MEETS STABILITY CRITERION OF THE SINK & SOURCE TERM
 =  116.7    (WHEN MIN. R.F.=1)  AT K=   2, I=   1, J= 120

 MAXIMUM STEPSIZE WHICH MEETS STABILITY CRITERION OF THE DISPERSION TERM
 =  20.29    (WHEN MIN. R.F.=1)  AT K=   1, I=   1, J=  31
     1 CALLS TO GCG PACKAGE FOR TRANSPORT TIME STEP   4 IN FLOW TIME STEP 390 STRESS PERIOD   1
     5 TOTAL ITERATIONS
  MAXIMUM CONCENTRATION CHANGES FOR EACH ITERATION:
  MAX. CHANGE LAYER,ROW,COL MAX. CHANGE LAYER,ROW,COL MAX. CHANGE LAYER,ROW,COL MAX. CHANGE LAYER,ROW,COL MAX. CHANGE LAYER,ROW,COL
 ------------------------------------------------------------------------------------------------------------------------------------
   0.1529E-01 (  2,  1, 78)  0.2919E-03 (  2,  1, 76)  0.7255E-05 (  2,  1, 79)  0.2496E-06 (  3,  1, 79)  0.6021E-08 (  4,  1, 75)


                                          ================================================
                                                         FROM TIME =   3900.0     TO    3910.0    

 
 SOLVING FOR HEAD 
 FLOW MODEL IS TRANSIENT
 FLOW MODEL CONTAINS CONSTANT-HEAD CELLS


 MAXIMUM STEPSIZE DURING WHICH ANY PARTICLE CANNOT MOVE MORE THAN ONE CELL
 =  6.072    (WHEN MIN. R.F.=1)  AT K=  28, I=   1, J=  67

 MAXIMUM STEPSIZE WHICH MEETS STABILITY CRITERION OF THE ADVECTION TERM
 (FOR PURE FINITE-DIFFERENCE OPTION, MIXELM=0) 
 =  4.341    (WHEN MIN. R.F.=1)  AT K=   2, I=   1, J=  45


 TOTAL NUMBER OF POINT SOURCES/SINKS PRESENT IN THE FLOW MODEL =    62

 MAXIMUM STEPSIZE WHICH MEETS STABILITY CRITERION OF THE SINK & SOURCE TERM
 =  117.8    (WHEN MIN. R.F.=1)  AT K=   2, I=   1, J= 120

 MAXIMUM STEPSIZE WHICH MEETS STABILITY CRITERION OF THE DISPERSION TERM
 =  20.29    (WHEN MIN. R.F.=1)  AT K=   1, I=   1, J=  31


     1 CALLS TO GCG PACKAGE FOR TRANSPORT TIME STEP   1 IN FLOW TIME STEP 391 STRESS PERIOD   1
     6 TOTAL ITERATIONS

 NO OUTPUT CONTROL FOR STRESS PERIOD    1   TIME STEP 391
 
 SOLVING FOR HEAD 
 FLOW MODEL IS TRANSIENT
 FLOW MODEL CONTAINS CONSTANT-HEAD CELLS


 MAXIMUM STEPSIZE DURING WHICH ANY PARTICLE CANNOT MOVE MORE THAN ONE CELL
 =  6.084    (WHEN MIN. R.F.=1)  AT K=  28, I=   1, J=  67

 MAXIMUM STEPSIZE WHICH MEETS STABILITY CRITERION OF THE ADVECTION TERM
 (FOR PURE FINITE-DIFFERENCE OPTION, MIXELM=0) 
 =  4.336    (WHEN MIN. R.F.=1)  AT K=   2, I=   1, J=  45


 TOTAL NUMBER OF POINT SOURCES/SINKS PRESENT IN THE FLOW MODEL =    62

 MAXIMUM STEPSIZE WHICH MEETS STABILITY CRITERION OF THE SINK & SOURCE TERM
 =  113.3    (WHEN MIN. R.F.=1)  AT K=   2, I=   1, J= 120

 MAXIMUM STEPSIZE WHICH MEETS STABILITY CRITERION OF THE DISPERSION TERM
 =  20.29    (WHEN MIN. R.F.=1)  AT K=   1, I=   1, J=  31
     1 CALLS TO GCG PACKAGE FOR TRANSPORT TIME STEP   2 IN FLOW TIME STEP 391 STRESS PERIOD   1
     6 TOTAL ITERATIONS
 
 SOLVING FOR HEAD 
 FLOW MODEL IS TRANSIENT
 FLOW MODEL CONTAINS CONSTANT-HEAD CELLS


 MAXIMUM STEPSIZE DURING WHICH ANY PARTICLE CANNOT MOVE MORE THAN ONE CELL
 =  6.093    (WHEN MIN. R.F.=1)  AT K=  28, I=   1, J=  67

 MAXIMUM STEPSIZE WHICH MEETS STABILITY CRITERION OF THE ADVECTION TERM
 (FOR PURE FINITE-DIFFERENCE OPTION, MIXELM=0) 
 =  4.323    (WHEN MIN. R.F.=1)  AT K=   2, I=   1, J=  76


 TOTAL NUMBER OF POINT SOURCES/SINKS PRESENT IN THE FLOW MODEL =    62

 MAXIMUM STEPSIZE WHICH MEETS STABILITY CRITERION OF THE SINK & SOURCE TERM
 =  111.8    (WHEN MIN. R.F.=1)  AT K=   2, I=   1, J= 120

 MAXIMUM STEPSIZE WHICH MEETS STABILITY CRITERION OF THE DISPERSION TERM
 =  20.29    (WHEN MIN. R.F.=1)  AT K=   1, I=   1, J=  31
     1 CALLS TO GCG PACKAGE FOR TRANSPORT TIME STEP   3 IN FLOW TIME STEP 391 STRESS PERIOD   1
     6 TOTAL ITERATIONS
 
 SOLVING FOR HEAD 
 FLOW MODEL IS TRANSIENT
 FLOW MODEL CONTAINS CONSTANT-HEAD CELLS


 MAXIMUM STEPSIZE DURING WHICH ANY PARTICLE CANNOT MOVE MORE THAN ONE CELL
 =  6.101    (WHEN MIN. R.F.=1)  AT K=  28, I=   1, J=  67

 MAXIMUM STEPSIZE WHICH MEETS STABILITY CRITERION OF THE ADVECTION TERM
 (FOR PURE FINITE-DIFFERENCE OPTION, MIXELM=0) 
 =  4.275    (WHEN MIN. R.F.=1)  AT K=   2, I=   1, J=  76


 TOTAL NUMBER OF POINT SOURCES/SINKS PRESENT IN THE FLOW MODEL =    62

 MAXIMUM STEPSIZE WHICH MEETS STABILITY CRITERION OF THE SINK & SOURCE TERM
 =  108.6    (WHEN MIN. R.F.=1)  AT K=   2, I=   1, J= 120

 MAXIMUM STEPSIZE WHICH MEETS STABILITY CRITERION OF THE DISPERSION TERM
 =  20.29    (WHEN MIN. R.F.=1)  AT K=   1, I=   1, J=  31
     1 CALLS TO GCG PACKAGE FOR TRANSPORT TIME STEP   4 IN FLOW TIME STEP 391 STRESS PERIOD   1
     3 TOTAL ITERATIONS
  MAXIMUM CONCENTRATION CHANGES FOR EACH ITERATION:
  MAX. CHANGE LAYER,ROW,COL MAX. CHANGE LAYER,ROW,COL MAX. CHANGE LAYER,ROW,COL MAX. CHANGE LAYER,ROW,COL MAX. CHANGE LAYER,ROW,COL
 ------------------------------------------------------------------------------------------------------------------------------------
   0.2230E-02 (  2,  1, 77)  0.7848E-05 (  2,  1, 77)  0.3895E-07 (  2,  1, 78)


                                          ================================================
                                                         FROM TIME =   3910.0     TO    3920.0    

 
 SOLVING FOR HEAD 
 FLOW MODEL IS TRANSIENT
 FLOW MODEL CONTAINS CONSTANT-HEAD CELLS


 MAXIMUM STEPSIZE DURING WHICH ANY PARTICLE CANNOT MOVE MORE THAN ONE CELL
 =  6.102    (WHEN MIN. R.F.=1)  AT K=  28, I=   1, J=  67

 MAXIMUM STEPSIZE WHICH MEETS STABILITY CRITERION OF THE ADVECTION TERM
 (FOR PURE FINITE-DIFFERENCE OPTION, MIXELM=0) 
 =  4.281    (WHEN MIN. R.F.=1)  AT K=   2, I=   1, J=  76


 TOTAL NUMBER OF POINT SOURCES/SINKS PRESENT IN THE FLOW MODEL =    62

 MAXIMUM STEPSIZE WHICH MEETS STABILITY CRITERION OF THE SINK & SOURCE TERM
 =  111.2    (WHEN MIN. R.F.=1)  AT K=   2, I=   1, J= 120

 MAXIMUM STEPSIZE WHICH MEETS STABILITY CRITERION OF THE DISPERSION TERM
 =  20.29    (WHEN MIN. R.F.=1)  AT K=   1, I=   1, J=  31


     1 CALLS TO GCG PACKAGE FOR TRANSPORT TIME STEP   1 IN FLOW TIME STEP 392 STRESS PERIOD   1
     6 TOTAL ITERATIONS

 NO OUTPUT CONTROL FOR STRESS PERIOD    1   TIME STEP 392
 
 SOLVING FOR HEAD 
 FLOW MODEL IS TRANSIENT
 FLOW MODEL CONTAINS CONSTANT-HEAD CELLS


 MAXIMUM STEPSIZE DURING WHICH ANY PARTICLE CANNOT MOVE MORE THAN ONE CELL
 =  6.109    (WHEN MIN. R.F.=1)  AT K=  28, I=   1, J=  67

 MAXIMUM STEPSIZE WHICH MEETS STABILITY CRITERION OF THE ADVECTION TERM
 (FOR PURE FINITE-DIFFERENCE OPTION, MIXELM=0) 
 =  4.421    (WHEN MIN. R.F.=1)  AT K=   2, I=   1, J=  76


 TOTAL NUMBER OF POINT SOURCES/SINKS PRESENT IN THE FLOW MODEL =    62

 MAXIMUM STEPSIZE WHICH MEETS STABILITY CRITERION OF THE SINK & SOURCE TERM
 =  106.9    (WHEN MIN. R.F.=1)  AT K=   2, I=   1, J= 120

 MAXIMUM STEPSIZE WHICH MEETS STABILITY CRITERION OF THE DISPERSION TERM
 =  20.29    (WHEN MIN. R.F.=1)  AT K=   1, I=   1, J=  31
     1 CALLS TO GCG PACKAGE FOR TRANSPORT TIME STEP   2 IN FLOW TIME STEP 392 STRESS PERIOD   1
     6 TOTAL ITERATIONS
 
 SOLVING FOR HEAD 
 FLOW MODEL IS TRANSIENT
 FLOW MODEL CONTAINS CONSTANT-HEAD CELLS


 MAXIMUM STEPSIZE DURING WHICH ANY PARTICLE CANNOT MOVE MORE THAN ONE CELL
 =  6.114    (WHEN MIN. R.F.=1)  AT K=  28, I=   1, J=  67

 MAXIMUM STEPSIZE WHICH MEETS STABILITY CRITERION OF THE ADVECTION TERM
 (FOR PURE FINITE-DIFFERENCE OPTION, MIXELM=0) 
 =  4.713    (WHEN MIN. R.F.=1)  AT K=   2, I=   1, J=  39


 TOTAL NUMBER OF POINT SOURCES/SINKS PRESENT IN THE FLOW MODEL =    62

 MAXIMUM STEPSIZE WHICH MEETS STABILITY CRITERION OF THE SINK & SOURCE TERM
 =  104.6    (WHEN MIN. R.F.=1)  AT K=   2, I=   1, J= 120

 MAXIMUM STEPSIZE WHICH MEETS STABILITY CRITERION OF THE DISPERSION TERM
 =  20.29    (WHEN MIN. R.F.=1)  AT K=   1, I=   1, J=  31
     1 CALLS TO GCG PACKAGE FOR TRANSPORT TIME STEP   3 IN FLOW TIME STEP 392 STRESS PERIOD   1
     6 TOTAL ITERATIONS
 
 SOLVING FOR HEAD 
 FLOW MODEL IS TRANSIENT
 FLOW MODEL CONTAINS CONSTANT-HEAD CELLS


 MAXIMUM STEPSIZE DURING WHICH ANY PARTICLE CANNOT MOVE MORE THAN ONE CELL
 =  6.118    (WHEN MIN. R.F.=1)  AT K=  28, I=   1, J=  67

 MAXIMUM STEPSIZE WHICH MEETS STABILITY CRITERION OF THE ADVECTION TERM
 (FOR PURE FINITE-DIFFERENCE OPTION, MIXELM=0) 
 =  4.548    (WHEN MIN. R.F.=1)  AT K=   2, I=   1, J=  82


 TOTAL NUMBER OF POINT SOURCES/SINKS PRESENT IN THE FLOW MODEL =    62

 MAXIMUM STEPSIZE WHICH MEETS STABILITY CRITERION OF THE SINK & SOURCE TERM
 =  102.0    (WHEN MIN. R.F.=1)  AT K=   2, I=   1, J= 120

 MAXIMUM STEPSIZE WHICH MEETS STABILITY CRITERION OF THE DISPERSION TERM
 =  20.29    (WHEN MIN. R.F.=1)  AT K=   1, I=   1, J=  31
     1 CALLS TO GCG PACKAGE FOR TRANSPORT TIME STEP   4 IN FLOW TIME STEP 392 STRESS PERIOD   1
     3 TOTAL ITERATIONS
  MAXIMUM CONCENTRATION CHANGES FOR EACH ITERATION:
  MAX. CHANGE LAYER,ROW,COL MAX. CHANGE LAYER,ROW,COL MAX. CHANGE LAYER,ROW,COL MAX. CHANGE LAYER,ROW,COL MAX. CHANGE LAYER,ROW,COL
 ------------------------------------------------------------------------------------------------------------------------------------
   0.2840E-02 (  2,  1, 38)  0.1455E-04 (  2,  1, 83)  0.7174E-07 (  2,  1, 84)


                                          ================================================
                                                         FROM TIME =   3920.0     TO    3930.0    

 
 SOLVING FOR HEAD 
 FLOW MODEL IS TRANSIENT
 FLOW MODEL CONTAINS CONSTANT-HEAD CELLS


 MAXIMUM STEPSIZE DURING WHICH ANY PARTICLE CANNOT MOVE MORE THAN ONE CELL
 =  6.119    (WHEN MIN. R.F.=1)  AT K=  28, I=   1, J=  67

 MAXIMUM STEPSIZE WHICH MEETS STABILITY CRITERION OF THE ADVECTION TERM
 (FOR PURE FINITE-DIFFERENCE OPTION, MIXELM=0) 
 =  4.547    (WHEN MIN. R.F.=1)  AT K=   2, I=   1, J=  82


 TOTAL NUMBER OF POINT SOURCES/SINKS PRESENT IN THE FLOW MODEL =    62

 MAXIMUM STEPSIZE WHICH MEETS STABILITY CRITERION OF THE SINK & SOURCE TERM
 =  104.8    (WHEN MIN. R.F.=1)  AT K=   2, I=   1, J= 120

 MAXIMUM STEPSIZE WHICH MEETS STABILITY CRITERION OF THE DISPERSION TERM
 =  20.29    (WHEN MIN. R.F.=1)  AT K=   1, I=   1, J=  31


     1 CALLS TO GCG PACKAGE FOR TRANSPORT TIME STEP   1 IN FLOW TIME STEP 393 STRESS PERIOD   1
     6 TOTAL ITERATIONS

 NO OUTPUT CONTROL FOR STRESS PERIOD    1   TIME STEP 393
 
 SOLVING FOR HEAD 
 FLOW MODEL IS TRANSIENT
 FLOW MODEL CONTAINS CONSTANT-HEAD CELLS


 MAXIMUM STEPSIZE DURING WHICH ANY PARTICLE CANNOT MOVE MORE THAN ONE CELL
 =  5.948    (WHEN MIN. R.F.=1)  AT K=   4, I=   1, J=  74

 MAXIMUM STEPSIZE WHICH MEETS STABILITY CRITERION OF THE ADVECTION TERM
 (FOR PURE FINITE-DIFFERENCE OPTION, MIXELM=0) 
 =  4.326    (WHEN MIN. R.F.=1)  AT K=   2, I=   1, J=  75


 TOTAL NUMBER OF POINT SOURCES/SINKS PRESENT IN THE FLOW MODEL =    62

 MAXIMUM STEPSIZE WHICH MEETS STABILITY CRITERION OF THE SINK & SOURCE TERM
 =  100.6    (WHEN MIN. R.F.=1)  AT K=   2, I=   1, J= 120

 MAXIMUM STEPSIZE WHICH MEETS STABILITY CRITERION OF THE DISPERSION TERM
 =  20.29    (WHEN MIN. R.F.=1)  AT K=   1, I=   1, J=  31
     1 CALLS TO GCG PACKAGE FOR TRANSPORT TIME STEP   2 IN FLOW TIME STEP 393 STRESS PERIOD   1
     6 TOTAL ITERATIONS
 
 SOLVING FOR HEAD 
 FLOW MODEL IS TRANSIENT
 FLOW MODEL CONTAINS CONSTANT-HEAD CELLS


 MAXIMUM STEPSIZE DURING WHICH ANY PARTICLE CANNOT MOVE MORE THAN ONE CELL
 =  5.614    (WHEN MIN. R.F.=1)  AT K=   4, I=   1, J=  74

 MAXIMUM STEPSIZE WHICH MEETS STABILITY CRITERION OF THE ADVECTION TERM
 (FOR PURE FINITE-DIFFERENCE OPTION, MIXELM=0) 
 =  4.154    (WHEN MIN. R.F.=1)  AT K=   2, I=   1, J=  40


 TOTAL NUMBER OF POINT SOURCES/SINKS PRESENT IN THE FLOW MODEL =    62

 MAXIMUM STEPSIZE WHICH MEETS STABILITY CRITERION OF THE SINK & SOURCE TERM
 =  98.24    (WHEN MIN. R.F.=1)  AT K=   2, I=   1, J= 120

 MAXIMUM STEPSIZE WHICH MEETS STABILITY CRITERION OF THE DISPERSION TERM
 =  20.29    (WHEN MIN. R.F.=1)  AT K=   1, I=   1, J=  31
     1 CALLS TO GCG PACKAGE FOR TRANSPORT TIME STEP   3 IN FLOW TIME STEP 393 STRESS PERIOD   1
     6 TOTAL ITERATIONS
  MAXIMUM CONCENTRATION CHANGES FOR EACH ITERATION:
  MAX. CHANGE LAYER,ROW,COL MAX. CHANGE LAYER,ROW,COL MAX. CHANGE LAYER,ROW,COL MAX. CHANGE LAYER,ROW,COL MAX. CHANGE LAYER,ROW,COL
 ------------------------------------------------------------------------------------------------------------------------------------
   0.3613E-01 (  2,  1, 76)  0.1576E-02 (  2,  1, 82)  0.1019E-03 (  2,  1, 77)  0.8042E-05 (  3,  1, 77)  0.4283E-06 (  4,  1, 74)
   0.2947E-07 (  5,  1, 74)


                                          ================================================
                                                         FROM TIME =   3930.0     TO    3940.0    

 
 SOLVING FOR HEAD 
 FLOW MODEL IS TRANSIENT
 FLOW MODEL CONTAINS CONSTANT-HEAD CELLS


 MAXIMUM STEPSIZE DURING WHICH ANY PARTICLE CANNOT MOVE MORE THAN ONE CELL
 =  5.371    (WHEN MIN. R.F.=1)  AT K=   4, I=   1, J=  74

 MAXIMUM STEPSIZE WHICH MEETS STABILITY CRITERION OF THE ADVECTION TERM
 (FOR PURE FINITE-DIFFERENCE OPTION, MIXELM=0) 
 =  3.966    (WHEN MIN. R.F.=1)  AT K=   2, I=   1, J=  81


 TOTAL NUMBER OF POINT SOURCES/SINKS PRESENT IN THE FLOW MODEL =    62

 MAXIMUM STEPSIZE WHICH MEETS STABILITY CRITERION OF THE SINK & SOURCE TERM
 =  98.69    (WHEN MIN. R.F.=1)  AT K=   2, I=   1, J= 120

 MAXIMUM STEPSIZE WHICH MEETS STABILITY CRITERION OF THE DISPERSION TERM
 =  20.29    (WHEN MIN. R.F.=1)  AT K=   1, I=   1, J=  31


     1 CALLS TO GCG PACKAGE FOR TRANSPORT TIME STEP   1 IN FLOW TIME STEP 394 STRESS PERIOD   1
     6 TOTAL ITERATIONS

 NO OUTPUT CONTROL FOR STRESS PERIOD    1   TIME STEP 394
 
 SOLVING FOR HEAD 
 FLOW MODEL IS TRANSIENT
 FLOW MODEL CONTAINS CONSTANT-HEAD CELLS


 MAXIMUM STEPSIZE DURING WHICH ANY PARTICLE CANNOT MOVE MORE THAN ONE CELL
 =  5.197    (WHEN MIN. R.F.=1)  AT K=   4, I=   1, J=  74

 MAXIMUM STEPSIZE WHICH MEETS STABILITY CRITERION OF THE ADVECTION TERM
 (FOR PURE FINITE-DIFFERENCE OPTION, MIXELM=0) 
 =  3.876    (WHEN MIN. R.F.=1)  AT K=   2, I=   1, J=  81


 TOTAL NUMBER OF POINT SOURCES/SINKS PRESENT IN THE FLOW MODEL =    62

 MAXIMUM STEPSIZE WHICH MEETS STABILITY CRITERION OF THE SINK & SOURCE TERM
 =  98.13    (WHEN MIN. R.F.=1)  AT K=   2, I=   1, J= 120

 MAXIMUM STEPSIZE WHICH MEETS STABILITY CRITERION OF THE DISPERSION TERM
 =  20.29    (WHEN MIN. R.F.=1)  AT K=   1, I=   1, J=  31
     1 CALLS TO GCG PACKAGE FOR TRANSPORT TIME STEP   2 IN FLOW TIME STEP 394 STRESS PERIOD   1
     6 TOTAL ITERATIONS
 
 SOLVING FOR HEAD 
 FLOW MODEL IS TRANSIENT
 FLOW MODEL CONTAINS CONSTANT-HEAD CELLS


 MAXIMUM STEPSIZE DURING WHICH ANY PARTICLE CANNOT MOVE MORE THAN ONE CELL
 =  5.079    (WHEN MIN. R.F.=1)  AT K=   4, I=   1, J=  74

 MAXIMUM STEPSIZE WHICH MEETS STABILITY CRITERION OF THE ADVECTION TERM
 (FOR PURE FINITE-DIFFERENCE OPTION, MIXELM=0) 
 =  4.041    (WHEN MIN. R.F.=1)  AT K=   2, I=   1, J=  81


 TOTAL NUMBER OF POINT SOURCES/SINKS PRESENT IN THE FLOW MODEL =    62

 MAXIMUM STEPSIZE WHICH MEETS STABILITY CRITERION OF THE SINK & SOURCE TERM
 =  96.47    (WHEN MIN. R.F.=1)  AT K=   2, I=   1, J= 120

 MAXIMUM STEPSIZE WHICH MEETS STABILITY CRITERION OF THE DISPERSION TERM
 =  20.29    (WHEN MIN. R.F.=1)  AT K=   1, I=   1, J=  31
     1 CALLS TO GCG PACKAGE FOR TRANSPORT TIME STEP   3 IN FLOW TIME STEP 394 STRESS PERIOD   1
     6 TOTAL ITERATIONS
 
 SOLVING FOR HEAD 
 FLOW MODEL IS TRANSIENT
 FLOW MODEL CONTAINS CONSTANT-HEAD CELLS


 MAXIMUM STEPSIZE DURING WHICH ANY PARTICLE CANNOT MOVE MORE THAN ONE CELL
 =  5.006    (WHEN MIN. R.F.=1)  AT K=   4, I=   1, J=  74

 MAXIMUM STEPSIZE WHICH MEETS STABILITY CRITERION OF THE ADVECTION TERM
 (FOR PURE FINITE-DIFFERENCE OPTION, MIXELM=0) 
 =  3.860    (WHEN MIN. R.F.=1)  AT K=   2, I=   1, J=  41


 TOTAL NUMBER OF POINT SOURCES/SINKS PRESENT IN THE FLOW MODEL =    62

 MAXIMUM STEPSIZE WHICH MEETS STABILITY CRITERION OF THE SINK & SOURCE TERM
 =  94.75    (WHEN MIN. R.F.=1)  AT K=   2, I=   1, J= 120

 MAXIMUM STEPSIZE WHICH MEETS STABILITY CRITERION OF THE DISPERSION TERM
 =  20.29    (WHEN MIN. R.F.=1)  AT K=   1, I=   1, J=  31
     1 CALLS TO GCG PACKAGE FOR TRANSPORT TIME STEP   4 IN FLOW TIME STEP 394 STRESS PERIOD   1
     4 TOTAL ITERATIONS
  MAXIMUM CONCENTRATION CHANGES FOR EACH ITERATION:
  MAX. CHANGE LAYER,ROW,COL MAX. CHANGE LAYER,ROW,COL MAX. CHANGE LAYER,ROW,COL MAX. CHANGE LAYER,ROW,COL MAX. CHANGE LAYER,ROW,COL
 ------------------------------------------------------------------------------------------------------------------------------------
   0.1177E-01 (  2,  1, 82)  0.1618E-03 (  3,  1, 77)  0.3985E-05 (  3,  1, 80)  0.8172E-07 (  3,  1, 44)


                                          ================================================
                                                         FROM TIME =   3940.0     TO    3950.0    

 
 SOLVING FOR HEAD 
 FLOW MODEL IS TRANSIENT
 FLOW MODEL CONTAINS CONSTANT-HEAD CELLS


 MAXIMUM STEPSIZE DURING WHICH ANY PARTICLE CANNOT MOVE MORE THAN ONE CELL
 =  4.992    (WHEN MIN. R.F.=1)  AT K=   4, I=   1, J=  74

 MAXIMUM STEPSIZE WHICH MEETS STABILITY CRITERION OF THE ADVECTION TERM
 (FOR PURE FINITE-DIFFERENCE OPTION, MIXELM=0) 
 =  3.777    (WHEN MIN. R.F.=1)  AT K=   2, I=   1, J=  80


 TOTAL NUMBER OF POINT SOURCES/SINKS PRESENT IN THE FLOW MODEL =    62

 MAXIMUM STEPSIZE WHICH MEETS STABILITY CRITERION OF THE SINK & SOURCE TERM
 =  97.39    (WHEN MIN. R.F.=1)  AT K=   2, I=   1, J= 120

 MAXIMUM STEPSIZE WHICH MEETS STABILITY CRITERION OF THE DISPERSION TERM
 =  20.29    (WHEN MIN. R.F.=1)  AT K=   1, I=   1, J=  31


     1 CALLS TO GCG PACKAGE FOR TRANSPORT TIME STEP   1 IN FLOW TIME STEP 395 STRESS PERIOD   1
     6 TOTAL ITERATIONS

 NO OUTPUT CONTROL FOR STRESS PERIOD    1   TIME STEP 395
 
 SOLVING FOR HEAD 
 FLOW MODEL IS TRANSIENT
 FLOW MODEL CONTAINS CONSTANT-HEAD CELLS


 MAXIMUM STEPSIZE DURING WHICH ANY PARTICLE CANNOT MOVE MORE THAN ONE CELL
 =  4.974    (WHEN MIN. R.F.=1)  AT K=   4, I=   1, J=  74

 MAXIMUM STEPSIZE WHICH MEETS STABILITY CRITERION OF THE ADVECTION TERM
 (FOR PURE FINITE-DIFFERENCE OPTION, MIXELM=0) 
 =  3.623    (WHEN MIN. R.F.=1)  AT K=   2, I=   1, J=  80


 TOTAL NUMBER OF POINT SOURCES/SINKS PRESENT IN THE FLOW MODEL =    62

 MAXIMUM STEPSIZE WHICH MEETS STABILITY CRITERION OF THE SINK & SOURCE TERM
 =  95.03    (WHEN MIN. R.F.=1)  AT K=   2, I=   1, J= 120

 MAXIMUM STEPSIZE WHICH MEETS STABILITY CRITERION OF THE DISPERSION TERM
 =  20.29    (WHEN MIN. R.F.=1)  AT K=   1, I=   1, J=  31
     1 CALLS TO GCG PACKAGE FOR TRANSPORT TIME STEP   2 IN FLOW TIME STEP 395 STRESS PERIOD   1
     6 TOTAL ITERATIONS
 
 SOLVING FOR HEAD 
 FLOW MODEL IS TRANSIENT
 FLOW MODEL CONTAINS CONSTANT-HEAD CELLS


 MAXIMUM STEPSIZE DURING WHICH ANY PARTICLE CANNOT MOVE MORE THAN ONE CELL
 =  4.995    (WHEN MIN. R.F.=1)  AT K=   4, I=   1, J=  74

 MAXIMUM STEPSIZE WHICH MEETS STABILITY CRITERION OF THE ADVECTION TERM
 (FOR PURE FINITE-DIFFERENCE OPTION, MIXELM=0) 
 =  3.618    (WHEN MIN. R.F.=1)  AT K=   2, I=   1, J=  80


 TOTAL NUMBER OF POINT SOURCES/SINKS PRESENT IN THE FLOW MODEL =    62

 MAXIMUM STEPSIZE WHICH MEETS STABILITY CRITERION OF THE SINK & SOURCE TERM
 =  96.35    (WHEN MIN. R.F.=1)  AT K=   2, I=   1, J= 120

 MAXIMUM STEPSIZE WHICH MEETS STABILITY CRITERION OF THE DISPERSION TERM
 =  20.29    (WHEN MIN. R.F.=1)  AT K=   1, I=   1, J=  31
     1 CALLS TO GCG PACKAGE FOR TRANSPORT TIME STEP   3 IN FLOW TIME STEP 395 STRESS PERIOD   1
     6 TOTAL ITERATIONS
 
 SOLVING FOR HEAD 
 FLOW MODEL IS TRANSIENT
 FLOW MODEL CONTAINS CONSTANT-HEAD CELLS


 MAXIMUM STEPSIZE DURING WHICH ANY PARTICLE CANNOT MOVE MORE THAN ONE CELL
 =  5.036    (WHEN MIN. R.F.=1)  AT K=   5, I=   1, J=  74

 MAXIMUM STEPSIZE WHICH MEETS STABILITY CRITERION OF THE ADVECTION TERM
 (FOR PURE FINITE-DIFFERENCE OPTION, MIXELM=0) 
 =  3.823    (WHEN MIN. R.F.=1)  AT K=   2, I=   1, J=  80


 TOTAL NUMBER OF POINT SOURCES/SINKS PRESENT IN THE FLOW MODEL =    62

 MAXIMUM STEPSIZE WHICH MEETS STABILITY CRITERION OF THE SINK & SOURCE TERM
 =  96.40    (WHEN MIN. R.F.=1)  AT K=   2, I=   1, J= 120

 MAXIMUM STEPSIZE WHICH MEETS STABILITY CRITERION OF THE DISPERSION TERM
 =  20.29    (WHEN MIN. R.F.=1)  AT K=   1, I=   1, J=  31
     1 CALLS TO GCG PACKAGE FOR TRANSPORT TIME STEP   4 IN FLOW TIME STEP 395 STRESS PERIOD   1
     5 TOTAL ITERATIONS
  MAXIMUM CONCENTRATION CHANGES FOR EACH ITERATION:
  MAX. CHANGE LAYER,ROW,COL MAX. CHANGE LAYER,ROW,COL MAX. CHANGE LAYER,ROW,COL MAX. CHANGE LAYER,ROW,COL MAX. CHANGE LAYER,ROW,COL
 ------------------------------------------------------------------------------------------------------------------------------------
   0.1926E-01 (  2,  1, 81)  0.4616E-03 (  2,  1, 79)  0.1859E-04 (  3,  1, 79)  0.6698E-06 (  3,  1, 45)  0.1874E-07 (  4,  1, 45)


                                          ================================================
                                                         FROM TIME =   3950.0     TO    3960.0    

 
 SOLVING FOR HEAD 
 FLOW MODEL IS TRANSIENT
 FLOW MODEL CONTAINS CONSTANT-HEAD CELLS


 MAXIMUM STEPSIZE DURING WHICH ANY PARTICLE CANNOT MOVE MORE THAN ONE CELL
 =  5.055    (WHEN MIN. R.F.=1)  AT K=   5, I=   1, J=  74

 MAXIMUM STEPSIZE WHICH MEETS STABILITY CRITERION OF THE ADVECTION TERM
 (FOR PURE FINITE-DIFFERENCE OPTION, MIXELM=0) 
 =  3.879    (WHEN MIN. R.F.=1)  AT K=   2, I=   1, J=  42


 TOTAL NUMBER OF POINT SOURCES/SINKS PRESENT IN THE FLOW MODEL =    62

 MAXIMUM STEPSIZE WHICH MEETS STABILITY CRITERION OF THE SINK & SOURCE TERM
 =  98.05    (WHEN MIN. R.F.=1)  AT K=   2, I=   1, J= 120

 MAXIMUM STEPSIZE WHICH MEETS STABILITY CRITERION OF THE DISPERSION TERM
 =  20.29    (WHEN MIN. R.F.=1)  AT K=   1, I=   1, J=  31


     1 CALLS TO GCG PACKAGE FOR TRANSPORT TIME STEP   1 IN FLOW TIME STEP 396 STRESS PERIOD   1
     6 TOTAL ITERATIONS

 NO OUTPUT CONTROL FOR STRESS PERIOD    1   TIME STEP 396
 
 SOLVING FOR HEAD 
 FLOW MODEL IS TRANSIENT
 FLOW MODEL CONTAINS CONSTANT-HEAD CELLS


 MAXIMUM STEPSIZE DURING WHICH ANY PARTICLE CANNOT MOVE MORE THAN ONE CELL
 =  5.112    (WHEN MIN. R.F.=1)  AT K=   5, I=   1, J=  74

 MAXIMUM STEPSIZE WHICH MEETS STABILITY CRITERION OF THE ADVECTION TERM
 (FOR PURE FINITE-DIFFERENCE OPTION, MIXELM=0) 
 =  3.672    (WHEN MIN. R.F.=1)  AT K=   2, I=   1, J=  79


 TOTAL NUMBER OF POINT SOURCES/SINKS PRESENT IN THE FLOW MODEL =    62

 MAXIMUM STEPSIZE WHICH MEETS STABILITY CRITERION OF THE SINK & SOURCE TERM
 =  95.88    (WHEN MIN. R.F.=1)  AT K=   2, I=   1, J= 120

 MAXIMUM STEPSIZE WHICH MEETS STABILITY CRITERION OF THE DISPERSION TERM
 =  20.29    (WHEN MIN. R.F.=1)  AT K=   1, I=   1, J=  31
     1 CALLS TO GCG PACKAGE FOR TRANSPORT TIME STEP   2 IN FLOW TIME STEP 396 STRESS PERIOD   1
     6 TOTAL ITERATIONS
 
 SOLVING FOR HEAD 
 FLOW MODEL IS TRANSIENT
 FLOW MODEL CONTAINS CONSTANT-HEAD CELLS


 MAXIMUM STEPSIZE DURING WHICH ANY PARTICLE CANNOT MOVE MORE THAN ONE CELL
 =  5.201    (WHEN MIN. R.F.=1)  AT K=   5, I=   1, J=  74

 MAXIMUM STEPSIZE WHICH MEETS STABILITY CRITERION OF THE ADVECTION TERM
 (FOR PURE FINITE-DIFFERENCE OPTION, MIXELM=0) 
 =  3.552    (WHEN MIN. R.F.=1)  AT K=   2, I=   1, J=  79


 TOTAL NUMBER OF POINT SOURCES/SINKS PRESENT IN THE FLOW MODEL =    62

 MAXIMUM STEPSIZE WHICH MEETS STABILITY CRITERION OF THE SINK & SOURCE TERM
 =  96.49    (WHEN MIN. R.F.=1)  AT K=   2, I=   1, J= 120

 MAXIMUM STEPSIZE WHICH MEETS STABILITY CRITERION OF THE DISPERSION TERM
 =  20.29    (WHEN MIN. R.F.=1)  AT K=   1, I=   1, J=  31
     1 CALLS TO GCG PACKAGE FOR TRANSPORT TIME STEP   3 IN FLOW TIME STEP 396 STRESS PERIOD   1
     6 TOTAL ITERATIONS
 
 SOLVING FOR HEAD 
 FLOW MODEL IS TRANSIENT
 FLOW MODEL CONTAINS CONSTANT-HEAD CELLS


 MAXIMUM STEPSIZE DURING WHICH ANY PARTICLE CANNOT MOVE MORE THAN ONE CELL
 =  5.310    (WHEN MIN. R.F.=1)  AT K=   6, I=   1, J=  74

 MAXIMUM STEPSIZE WHICH MEETS STABILITY CRITERION OF THE ADVECTION TERM
 (FOR PURE FINITE-DIFFERENCE OPTION, MIXELM=0) 
 =  3.576    (WHEN MIN. R.F.=1)  AT K=   2, I=   1, J=  79


 TOTAL NUMBER OF POINT SOURCES/SINKS PRESENT IN THE FLOW MODEL =    62

 MAXIMUM STEPSIZE WHICH MEETS STABILITY CRITERION OF THE SINK & SOURCE TERM
 =  97.32    (WHEN MIN. R.F.=1)  AT K=   2, I=   1, J= 120

 MAXIMUM STEPSIZE WHICH MEETS STABILITY CRITERION OF THE DISPERSION TERM
 =  20.29    (WHEN MIN. R.F.=1)  AT K=   1, I=   1, J=  31
     1 CALLS TO GCG PACKAGE FOR TRANSPORT TIME STEP   4 IN FLOW TIME STEP 396 STRESS PERIOD   1
     5 TOTAL ITERATIONS
  MAXIMUM CONCENTRATION CHANGES FOR EACH ITERATION:
  MAX. CHANGE LAYER,ROW,COL MAX. CHANGE LAYER,ROW,COL MAX. CHANGE LAYER,ROW,COL MAX. CHANGE LAYER,ROW,COL MAX. CHANGE LAYER,ROW,COL
 ------------------------------------------------------------------------------------------------------------------------------------
   0.1820E-01 (  2,  1, 80)  0.3876E-03 (  2,  1, 80)  0.1294E-04 (  3,  1, 78)  0.6227E-06 (  3,  1, 76)  0.1459E-07 (  4,  1, 76)


                                          ================================================
                                                         FROM TIME =   3960.0     TO    3970.0    

 
 SOLVING FOR HEAD 
 FLOW MODEL IS TRANSIENT
 FLOW MODEL CONTAINS CONSTANT-HEAD CELLS


 MAXIMUM STEPSIZE DURING WHICH ANY PARTICLE CANNOT MOVE MORE THAN ONE CELL
 =  5.351    (WHEN MIN. R.F.=1)  AT K=   6, I=   1, J=  74

 MAXIMUM STEPSIZE WHICH MEETS STABILITY CRITERION OF THE ADVECTION TERM
 (FOR PURE FINITE-DIFFERENCE OPTION, MIXELM=0) 
 =  3.649    (WHEN MIN. R.F.=1)  AT K=   2, I=   1, J=  79


 TOTAL NUMBER OF POINT SOURCES/SINKS PRESENT IN THE FLOW MODEL =    62

 MAXIMUM STEPSIZE WHICH MEETS STABILITY CRITERION OF THE SINK & SOURCE TERM
 =  100.6    (WHEN MIN. R.F.=1)  AT K=   2, I=   1, J= 120

 MAXIMUM STEPSIZE WHICH MEETS STABILITY CRITERION OF THE DISPERSION TERM
 =  20.29    (WHEN MIN. R.F.=1)  AT K=   1, I=   1, J=  31


     1 CALLS TO GCG PACKAGE FOR TRANSPORT TIME STEP   1 IN FLOW TIME STEP 397 STRESS PERIOD   1
     6 TOTAL ITERATIONS

 NO OUTPUT CONTROL FOR STRESS PERIOD    1   TIME STEP 397
 
 SOLVING FOR HEAD 
 FLOW MODEL IS TRANSIENT
 FLOW MODEL CONTAINS CONSTANT-HEAD CELLS


 MAXIMUM STEPSIZE DURING WHICH ANY PARTICLE CANNOT MOVE MORE THAN ONE CELL
 =  5.443    (WHEN MIN. R.F.=1)  AT K=   6, I=   1, J=  74

 MAXIMUM STEPSIZE WHICH MEETS STABILITY CRITERION OF THE ADVECTION TERM
 (FOR PURE FINITE-DIFFERENCE OPTION, MIXELM=0) 
 =  3.911    (WHEN MIN. R.F.=1)  AT K=   2, I=   1, J=  79


 TOTAL NUMBER OF POINT SOURCES/SINKS PRESENT IN THE FLOW MODEL =    62

 MAXIMUM STEPSIZE WHICH MEETS STABILITY CRITERION OF THE SINK & SOURCE TERM
 =  99.45    (WHEN MIN. R.F.=1)  AT K=   2, I=   1, J= 120

 MAXIMUM STEPSIZE WHICH MEETS STABILITY CRITERION OF THE DISPERSION TERM
 =  20.29    (WHEN MIN. R.F.=1)  AT K=   1, I=   1, J=  31
     1 CALLS TO GCG PACKAGE FOR TRANSPORT TIME STEP   2 IN FLOW TIME STEP 397 STRESS PERIOD   1
     6 TOTAL ITERATIONS
 
 SOLVING FOR HEAD 
 FLOW MODEL IS TRANSIENT
 FLOW MODEL CONTAINS CONSTANT-HEAD CELLS


 MAXIMUM STEPSIZE DURING WHICH ANY PARTICLE CANNOT MOVE MORE THAN ONE CELL
 =  5.562    (WHEN MIN. R.F.=1)  AT K=   6, I=   1, J=  74

 MAXIMUM STEPSIZE WHICH MEETS STABILITY CRITERION OF THE ADVECTION TERM
 (FOR PURE FINITE-DIFFERENCE OPTION, MIXELM=0) 
 =  3.836    (WHEN MIN. R.F.=1)  AT K=   2, I=   1, J=  43


 TOTAL NUMBER OF POINT SOURCES/SINKS PRESENT IN THE FLOW MODEL =    62

 MAXIMUM STEPSIZE WHICH MEETS STABILITY CRITERION OF THE SINK & SOURCE TERM
 =  99.72    (WHEN MIN. R.F.=1)  AT K=   2, I=   1, J= 120

 MAXIMUM STEPSIZE WHICH MEETS STABILITY CRITERION OF THE DISPERSION TERM
 =  20.29    (WHEN MIN. R.F.=1)  AT K=   1, I=   1, J=  31
     1 CALLS TO GCG PACKAGE FOR TRANSPORT TIME STEP   3 IN FLOW TIME STEP 397 STRESS PERIOD   1
     6 TOTAL ITERATIONS
 
 SOLVING FOR HEAD 
 FLOW MODEL IS TRANSIENT
 FLOW MODEL CONTAINS CONSTANT-HEAD CELLS


 MAXIMUM STEPSIZE DURING WHICH ANY PARTICLE CANNOT MOVE MORE THAN ONE CELL
 =  5.596    (WHEN MIN. R.F.=1)  AT K=  28, I=   1, J=  67

 MAXIMUM STEPSIZE WHICH MEETS STABILITY CRITERION OF THE ADVECTION TERM
 (FOR PURE FINITE-DIFFERENCE OPTION, MIXELM=0) 
 =  3.707    (WHEN MIN. R.F.=1)  AT K=   2, I=   1, J=  78


 TOTAL NUMBER OF POINT SOURCES/SINKS PRESENT IN THE FLOW MODEL =    62

 MAXIMUM STEPSIZE WHICH MEETS STABILITY CRITERION OF THE SINK & SOURCE TERM
 =  99.59    (WHEN MIN. R.F.=1)  AT K=   2, I=   1, J= 120

 MAXIMUM STEPSIZE WHICH MEETS STABILITY CRITERION OF THE DISPERSION TERM
 =  20.29    (WHEN MIN. R.F.=1)  AT K=   1, I=   1, J=  31
     1 CALLS TO GCG PACKAGE FOR TRANSPORT TIME STEP   4 IN FLOW TIME STEP 397 STRESS PERIOD   1
     5 TOTAL ITERATIONS
  MAXIMUM CONCENTRATION CHANGES FOR EACH ITERATION:
  MAX. CHANGE LAYER,ROW,COL MAX. CHANGE LAYER,ROW,COL MAX. CHANGE LAYER,ROW,COL MAX. CHANGE LAYER,ROW,COL MAX. CHANGE LAYER,ROW,COL
 ------------------------------------------------------------------------------------------------------------------------------------
   0.1744E-01 (  2,  1, 31)  0.5059E-03 (  2,  1, 78)  0.1506E-04 (  3,  1, 44)  0.4935E-06 (  3,  1, 80)  0.2024E-07 (  3,  1, 77)


                                          ================================================
                                                         FROM TIME =   3970.0     TO    3980.0    

 
 SOLVING FOR HEAD 
 FLOW MODEL IS TRANSIENT
 FLOW MODEL CONTAINS CONSTANT-HEAD CELLS


 MAXIMUM STEPSIZE DURING WHICH ANY PARTICLE CANNOT MOVE MORE THAN ONE CELL
 =  5.564    (WHEN MIN. R.F.=1)  AT K=  27, I=   1, J=  67

 MAXIMUM STEPSIZE WHICH MEETS STABILITY CRITERION OF THE ADVECTION TERM
 (FOR PURE FINITE-DIFFERENCE OPTION, MIXELM=0) 
 =  3.669    (WHEN MIN. R.F.=1)  AT K=   2, I=   1, J=  78


 TOTAL NUMBER OF POINT SOURCES/SINKS PRESENT IN THE FLOW MODEL =    62

 MAXIMUM STEPSIZE WHICH MEETS STABILITY CRITERION OF THE SINK & SOURCE TERM
 =  101.9    (WHEN MIN. R.F.=1)  AT K=   2, I=   1, J= 120

 MAXIMUM STEPSIZE WHICH MEETS STABILITY CRITERION OF THE DISPERSION TERM
 =  20.29    (WHEN MIN. R.F.=1)  AT K=   1, I=   1, J=  31


     1 CALLS TO GCG PACKAGE FOR TRANSPORT TIME STEP   1 IN FLOW TIME STEP 398 STRESS PERIOD   1
     6 TOTAL ITERATIONS

 NO OUTPUT CONTROL FOR STRESS PERIOD    1   TIME STEP 398
 
 SOLVING FOR HEAD 
 FLOW MODEL IS TRANSIENT
 FLOW MODEL CONTAINS CONSTANT-HEAD CELLS


 MAXIMUM STEPSIZE DURING WHICH ANY PARTICLE CANNOT MOVE MORE THAN ONE CELL
 =  5.501    (WHEN MIN. R.F.=1)  AT K=  27, I=   1, J=  67

 MAXIMUM STEPSIZE WHICH MEETS STABILITY CRITERION OF THE ADVECTION TERM
 (FOR PURE FINITE-DIFFERENCE OPTION, MIXELM=0) 
 =  3.681    (WHEN MIN. R.F.=1)  AT K=   2, I=   1, J=  78


 TOTAL NUMBER OF POINT SOURCES/SINKS PRESENT IN THE FLOW MODEL =    62

 MAXIMUM STEPSIZE WHICH MEETS STABILITY CRITERION OF THE SINK & SOURCE TERM
 =  101.7    (WHEN MIN. R.F.=1)  AT K=   2, I=   1, J= 120

 MAXIMUM STEPSIZE WHICH MEETS STABILITY CRITERION OF THE DISPERSION TERM
 =  20.29    (WHEN MIN. R.F.=1)  AT K=   1, I=   1, J=  31
     1 CALLS TO GCG PACKAGE FOR TRANSPORT TIME STEP   2 IN FLOW TIME STEP 398 STRESS PERIOD   1
     6 TOTAL ITERATIONS
 
 SOLVING FOR HEAD 
 FLOW MODEL IS TRANSIENT
 FLOW MODEL CONTAINS CONSTANT-HEAD CELLS


 MAXIMUM STEPSIZE DURING WHICH ANY PARTICLE CANNOT MOVE MORE THAN ONE CELL
 =  5.446    (WHEN MIN. R.F.=1)  AT K=  27, I=   1, J=  67

 MAXIMUM STEPSIZE WHICH MEETS STABILITY CRITERION OF THE ADVECTION TERM
 (FOR PURE FINITE-DIFFERENCE OPTION, MIXELM=0) 
 =  3.804    (WHEN MIN. R.F.=1)  AT K=   2, I=   1, J=  78


 TOTAL NUMBER OF POINT SOURCES/SINKS PRESENT IN THE FLOW MODEL =    62

 MAXIMUM STEPSIZE WHICH MEETS STABILITY CRITERION OF THE SINK & SOURCE TERM
 =  102.3    (WHEN MIN. R.F.=1)  AT K=   2, I=   1, J= 120

 MAXIMUM STEPSIZE WHICH MEETS STABILITY CRITERION OF THE DISPERSION TERM
 =  20.29    (WHEN MIN. R.F.=1)  AT K=   1, I=   1, J=  31
     1 CALLS TO GCG PACKAGE FOR TRANSPORT TIME STEP   3 IN FLOW TIME STEP 398 STRESS PERIOD   1
     6 TOTAL ITERATIONS
 
 SOLVING FOR HEAD 
 FLOW MODEL IS TRANSIENT
 FLOW MODEL CONTAINS CONSTANT-HEAD CELLS


 MAXIMUM STEPSIZE DURING WHICH ANY PARTICLE CANNOT MOVE MORE THAN ONE CELL
 =  5.399    (WHEN MIN. R.F.=1)  AT K=  27, I=   1, J=  67

 MAXIMUM STEPSIZE WHICH MEETS STABILITY CRITERION OF THE ADVECTION TERM
 (FOR PURE FINITE-DIFFERENCE OPTION, MIXELM=0) 
 =  4.105    (WHEN MIN. R.F.=1)  AT K=   2, I=   1, J=  78


 TOTAL NUMBER OF POINT SOURCES/SINKS PRESENT IN THE FLOW MODEL =    62

 MAXIMUM STEPSIZE WHICH MEETS STABILITY CRITERION OF THE SINK & SOURCE TERM
 =  101.7    (WHEN MIN. R.F.=1)  AT K=   2, I=   1, J= 120

 MAXIMUM STEPSIZE WHICH MEETS STABILITY CRITERION OF THE DISPERSION TERM
 =  20.29    (WHEN MIN. R.F.=1)  AT K=   1, I=   1, J=  31
     1 CALLS TO GCG PACKAGE FOR TRANSPORT TIME STEP   4 IN FLOW TIME STEP 398 STRESS PERIOD   1
     5 TOTAL ITERATIONS
  MAXIMUM CONCENTRATION CHANGES FOR EACH ITERATION:
  MAX. CHANGE LAYER,ROW,COL MAX. CHANGE LAYER,ROW,COL MAX. CHANGE LAYER,ROW,COL MAX. CHANGE LAYER,ROW,COL MAX. CHANGE LAYER,ROW,COL
 ------------------------------------------------------------------------------------------------------------------------------------
   0.2108E-01 (  2,  1, 79)  0.6253E-03 (  2,  1, 77)  0.2152E-04 (  3,  1, 77)  0.6803E-06 (  3,  1, 80)  0.2339E-07 (  5,  1, 80)


                                          ================================================
                                                         FROM TIME =   3980.0     TO    3990.0    

 
 SOLVING FOR HEAD 
 FLOW MODEL IS TRANSIENT
 FLOW MODEL CONTAINS CONSTANT-HEAD CELLS


 MAXIMUM STEPSIZE DURING WHICH ANY PARTICLE CANNOT MOVE MORE THAN ONE CELL
 =  5.376    (WHEN MIN. R.F.=1)  AT K=  27, I=   1, J=  67

 MAXIMUM STEPSIZE WHICH MEETS STABILITY CRITERION OF THE ADVECTION TERM
 (FOR PURE FINITE-DIFFERENCE OPTION, MIXELM=0) 
 =  4.038    (WHEN MIN. R.F.=1)  AT K=   2, I=   1, J=  44


 TOTAL NUMBER OF POINT SOURCES/SINKS PRESENT IN THE FLOW MODEL =    62

 MAXIMUM STEPSIZE WHICH MEETS STABILITY CRITERION OF THE SINK & SOURCE TERM
 =  102.6    (WHEN MIN. R.F.=1)  AT K=   2, I=   1, J= 120

 MAXIMUM STEPSIZE WHICH MEETS STABILITY CRITERION OF THE DISPERSION TERM
 =  20.29    (WHEN MIN. R.F.=1)  AT K=   1, I=   1, J=  31


     1 CALLS TO GCG PACKAGE FOR TRANSPORT TIME STEP   1 IN FLOW TIME STEP 399 STRESS PERIOD   1
     6 TOTAL ITERATIONS

 NO OUTPUT CONTROL FOR STRESS PERIOD    1   TIME STEP 399
 
 SOLVING FOR HEAD 
 FLOW MODEL IS TRANSIENT
 FLOW MODEL CONTAINS CONSTANT-HEAD CELLS


 MAXIMUM STEPSIZE DURING WHICH ANY PARTICLE CANNOT MOVE MORE THAN ONE CELL
 =  5.344    (WHEN MIN. R.F.=1)  AT K=  27, I=   1, J=  67

 MAXIMUM STEPSIZE WHICH MEETS STABILITY CRITERION OF THE ADVECTION TERM
 (FOR PURE FINITE-DIFFERENCE OPTION, MIXELM=0) 
 =  3.957    (WHEN MIN. R.F.=1)  AT K=   2, I=   1, J=  44


 TOTAL NUMBER OF POINT SOURCES/SINKS PRESENT IN THE FLOW MODEL =    62

 MAXIMUM STEPSIZE WHICH MEETS STABILITY CRITERION OF THE SINK & SOURCE TERM
 =  101.7    (WHEN MIN. R.F.=1)  AT K=   2, I=   1, J= 120

 MAXIMUM STEPSIZE WHICH MEETS STABILITY CRITERION OF THE DISPERSION TERM
 =  20.29    (WHEN MIN. R.F.=1)  AT K=   1, I=   1, J=  31
     1 CALLS TO GCG PACKAGE FOR TRANSPORT TIME STEP   2 IN FLOW TIME STEP 399 STRESS PERIOD   1
     6 TOTAL ITERATIONS



 >>>>>>>>>>>>>>>>>>>>>>>>>>>>>>>>>>>>>>>>>>>>>>>>>>>>>>>FOR COMPONENT NO. 01<<<<<<<<<<<<<<<<<<<<<<<<<<<<<<<<<<<<<<<<<<<<<<<<<<<<<<<


                                            -------------------------------------------
                                                      TRANSPORT STEP NO.    2
                                            -------------------------------------------

 TOTAL ELAPSED TIME SINCE BEGINNING OF SIMULATION =   3985.900    D   
 .....................................................................

                     CUMULATIVE MASS BUDGETS AT END OF TRANSPORT STEP    2, TIME STEP  399, STRESS PERIOD    1
                     ------------------------------------------------------------------------------------------

                                                             IN                           OUT
                                                      ----------------             ----------------
                               CONSTANT CONCENTRATION:    2476051.                   -1556902.    
                                        CONSTANT HEAD:    0.000000                   -320.7852    
                               MASS STOR (FLOW MODEL):    271.6057                   -465.7264    
                                MASS STORAGE (SOLUTE):    4085359.                   -5003992.    
                            ---------------------------------------------------------------------------
                                              [TOTAL]:    6561681.     KG            -6561681.     KG  

                                                          NET (IN - OUT):  -0.6684055E-02
                                                   DISCREPANCY (PERCENT):  -0.1018650E-06
 
 SOLVING FOR HEAD 
 FLOW MODEL IS TRANSIENT
 FLOW MODEL CONTAINS CONSTANT-HEAD CELLS


 MAXIMUM STEPSIZE DURING WHICH ANY PARTICLE CANNOT MOVE MORE THAN ONE CELL
 =  5.325    (WHEN MIN. R.F.=1)  AT K=  27, I=   1, J=  67

 MAXIMUM STEPSIZE WHICH MEETS STABILITY CRITERION OF THE ADVECTION TERM
 (FOR PURE FINITE-DIFFERENCE OPTION, MIXELM=0) 
 =  3.862    (WHEN MIN. R.F.=1)  AT K=   2, I=   1, J=  77


 TOTAL NUMBER OF POINT SOURCES/SINKS PRESENT IN THE FLOW MODEL =    62

 MAXIMUM STEPSIZE WHICH MEETS STABILITY CRITERION OF THE SINK & SOURCE TERM
 =  102.9    (WHEN MIN. R.F.=1)  AT K=   2, I=   1, J= 120

 MAXIMUM STEPSIZE WHICH MEETS STABILITY CRITERION OF THE DISPERSION TERM
 =  20.29    (WHEN MIN. R.F.=1)  AT K=   1, I=   1, J=  31
     1 CALLS TO GCG PACKAGE FOR TRANSPORT TIME STEP   3 IN FLOW TIME STEP 399 STRESS PERIOD   1
     6 TOTAL ITERATIONS
 
 SOLVING FOR HEAD 
 FLOW MODEL IS TRANSIENT
 FLOW MODEL CONTAINS CONSTANT-HEAD CELLS


 MAXIMUM STEPSIZE DURING WHICH ANY PARTICLE CANNOT MOVE MORE THAN ONE CELL
 =  5.313    (WHEN MIN. R.F.=1)  AT K=  27, I=   1, J=  67

 MAXIMUM STEPSIZE WHICH MEETS STABILITY CRITERION OF THE ADVECTION TERM
 (FOR PURE FINITE-DIFFERENCE OPTION, MIXELM=0) 
 =  3.871    (WHEN MIN. R.F.=1)  AT K=   2, I=   1, J=  77


 TOTAL NUMBER OF POINT SOURCES/SINKS PRESENT IN THE FLOW MODEL =    62

 MAXIMUM STEPSIZE WHICH MEETS STABILITY CRITERION OF THE SINK & SOURCE TERM
 =  102.5    (WHEN MIN. R.F.=1)  AT K=   2, I=   1, J= 120

 MAXIMUM STEPSIZE WHICH MEETS STABILITY CRITERION OF THE DISPERSION TERM
 =  20.29    (WHEN MIN. R.F.=1)  AT K=   1, I=   1, J=  31
     1 CALLS TO GCG PACKAGE FOR TRANSPORT TIME STEP   4 IN FLOW TIME STEP 399 STRESS PERIOD   1
     5 TOTAL ITERATIONS
  MAXIMUM CONCENTRATION CHANGES FOR EACH ITERATION:
  MAX. CHANGE LAYER,ROW,COL MAX. CHANGE LAYER,ROW,COL MAX. CHANGE LAYER,ROW,COL MAX. CHANGE LAYER,ROW,COL MAX. CHANGE LAYER,ROW,COL
 ------------------------------------------------------------------------------------------------------------------------------------
   0.1320E-01 (  2,  1, 78)  0.2388E-03 (  2,  1, 78)  0.5736E-05 (  2,  1, 79)  0.1525E-06 (  3,  1, 79)  0.3294E-08 (  4,  1, 78)


                                          ================================================
                                                         FROM TIME =   3990.0     TO    4000.0    

 
 SOLVING FOR HEAD 
 FLOW MODEL IS TRANSIENT
 FLOW MODEL CONTAINS CONSTANT-HEAD CELLS


 MAXIMUM STEPSIZE DURING WHICH ANY PARTICLE CANNOT MOVE MORE THAN ONE CELL
 =  5.310    (WHEN MIN. R.F.=1)  AT K=  27, I=   1, J=  67

 MAXIMUM STEPSIZE WHICH MEETS STABILITY CRITERION OF THE ADVECTION TERM
 (FOR PURE FINITE-DIFFERENCE OPTION, MIXELM=0) 
 =  3.916    (WHEN MIN. R.F.=1)  AT K=   2, I=   1, J=  77


 TOTAL NUMBER OF POINT SOURCES/SINKS PRESENT IN THE FLOW MODEL =    62

 MAXIMUM STEPSIZE WHICH MEETS STABILITY CRITERION OF THE SINK & SOURCE TERM
 =  103.7    (WHEN MIN. R.F.=1)  AT K=   2, I=   1, J= 120

 MAXIMUM STEPSIZE WHICH MEETS STABILITY CRITERION OF THE DISPERSION TERM
 =  20.29    (WHEN MIN. R.F.=1)  AT K=   1, I=   1, J=  31


     1 CALLS TO GCG PACKAGE FOR TRANSPORT TIME STEP   1 IN FLOW TIME STEP 400 STRESS PERIOD   1
     6 TOTAL ITERATIONS

 NO OUTPUT CONTROL FOR STRESS PERIOD    1   TIME STEP 400
 
 SOLVING FOR HEAD 
 FLOW MODEL IS TRANSIENT
 FLOW MODEL CONTAINS CONSTANT-HEAD CELLS


 MAXIMUM STEPSIZE DURING WHICH ANY PARTICLE CANNOT MOVE MORE THAN ONE CELL
 =  5.310    (WHEN MIN. R.F.=1)  AT K=  27, I=   1, J=  67

 MAXIMUM STEPSIZE WHICH MEETS STABILITY CRITERION OF THE ADVECTION TERM
 (FOR PURE FINITE-DIFFERENCE OPTION, MIXELM=0) 
 =  4.088    (WHEN MIN. R.F.=1)  AT K=   2, I=   1, J=  77


 TOTAL NUMBER OF POINT SOURCES/SINKS PRESENT IN THE FLOW MODEL =    62

 MAXIMUM STEPSIZE WHICH MEETS STABILITY CRITERION OF THE SINK & SOURCE TERM
 =  100.6    (WHEN MIN. R.F.=1)  AT K=   2, I=   1, J= 120

 MAXIMUM STEPSIZE WHICH MEETS STABILITY CRITERION OF THE DISPERSION TERM
 =  20.29    (WHEN MIN. R.F.=1)  AT K=   1, I=   1, J=  31
     1 CALLS TO GCG PACKAGE FOR TRANSPORT TIME STEP   2 IN FLOW TIME STEP 400 STRESS PERIOD   1
     6 TOTAL ITERATIONS
 
 SOLVING FOR HEAD 
 FLOW MODEL IS TRANSIENT
 FLOW MODEL CONTAINS CONSTANT-HEAD CELLS


 MAXIMUM STEPSIZE DURING WHICH ANY PARTICLE CANNOT MOVE MORE THAN ONE CELL
 =  5.312    (WHEN MIN. R.F.=1)  AT K=  28, I=   1, J=  67

 MAXIMUM STEPSIZE WHICH MEETS STABILITY CRITERION OF THE ADVECTION TERM
 (FOR PURE FINITE-DIFFERENCE OPTION, MIXELM=0) 
 =  4.338    (WHEN MIN. R.F.=1)  AT K=  30, I=   1, J=  27


 TOTAL NUMBER OF POINT SOURCES/SINKS PRESENT IN THE FLOW MODEL =    62

 MAXIMUM STEPSIZE WHICH MEETS STABILITY CRITERION OF THE SINK & SOURCE TERM
 =  98.79    (WHEN MIN. R.F.=1)  AT K=   2, I=   1, J= 120

 MAXIMUM STEPSIZE WHICH MEETS STABILITY CRITERION OF THE DISPERSION TERM
 =  20.29    (WHEN MIN. R.F.=1)  AT K=   1, I=   1, J=  31
     1 CALLS TO GCG PACKAGE FOR TRANSPORT TIME STEP   3 IN FLOW TIME STEP 400 STRESS PERIOD   1
     6 TOTAL ITERATIONS
 
 SOLVING FOR HEAD 
 FLOW MODEL IS TRANSIENT
 FLOW MODEL CONTAINS CONSTANT-HEAD CELLS


 MAXIMUM STEPSIZE DURING WHICH ANY PARTICLE CANNOT MOVE MORE THAN ONE CELL
 =  5.309    (WHEN MIN. R.F.=1)  AT K=  28, I=   1, J=  67

 MAXIMUM STEPSIZE WHICH MEETS STABILITY CRITERION OF THE ADVECTION TERM
 (FOR PURE FINITE-DIFFERENCE OPTION, MIXELM=0) 
 =  4.193    (WHEN MIN. R.F.=1)  AT K=  30, I=   1, J=  27


 TOTAL NUMBER OF POINT SOURCES/SINKS PRESENT IN THE FLOW MODEL =    62

 MAXIMUM STEPSIZE WHICH MEETS STABILITY CRITERION OF THE SINK & SOURCE TERM
 =  98.20    (WHEN MIN. R.F.=1)  AT K=   2, I=   1, J= 120

 MAXIMUM STEPSIZE WHICH MEETS STABILITY CRITERION OF THE DISPERSION TERM
 =  20.29    (WHEN MIN. R.F.=1)  AT K=   1, I=   1, J=  31
     1 CALLS TO GCG PACKAGE FOR TRANSPORT TIME STEP   4 IN FLOW TIME STEP 400 STRESS PERIOD   1
     5 TOTAL ITERATIONS
  MAXIMUM CONCENTRATION CHANGES FOR EACH ITERATION:
  MAX. CHANGE LAYER,ROW,COL MAX. CHANGE LAYER,ROW,COL MAX. CHANGE LAYER,ROW,COL MAX. CHANGE LAYER,ROW,COL MAX. CHANGE LAYER,ROW,COL
 ------------------------------------------------------------------------------------------------------------------------------------
   0.1173E-01 (  2,  1, 31)  0.2231E-03 (  2,  1, 76)  0.3907E-05 (  2,  1, 30)  0.1077E-06 (  3,  1, 75)  0.2719E-08 (  4,  1, 75)


                                          ================================================
                                                         FROM TIME =   4000.0     TO    4010.0    

 
 SOLVING FOR HEAD 
 FLOW MODEL IS TRANSIENT
 FLOW MODEL CONTAINS CONSTANT-HEAD CELLS


 MAXIMUM STEPSIZE DURING WHICH ANY PARTICLE CANNOT MOVE MORE THAN ONE CELL
 =  5.312    (WHEN MIN. R.F.=1)  AT K=  28, I=   1, J=  67

 MAXIMUM STEPSIZE WHICH MEETS STABILITY CRITERION OF THE ADVECTION TERM
 (FOR PURE FINITE-DIFFERENCE OPTION, MIXELM=0) 
 =  4.188    (WHEN MIN. R.F.=1)  AT K=  30, I=   1, J=  27


 TOTAL NUMBER OF POINT SOURCES/SINKS PRESENT IN THE FLOW MODEL =    62

 MAXIMUM STEPSIZE WHICH MEETS STABILITY CRITERION OF THE SINK & SOURCE TERM
 =  100.6    (WHEN MIN. R.F.=1)  AT K=   2, I=   1, J= 120

 MAXIMUM STEPSIZE WHICH MEETS STABILITY CRITERION OF THE DISPERSION TERM
 =  20.29    (WHEN MIN. R.F.=1)  AT K=   1, I=   1, J=  31


     1 CALLS TO GCG PACKAGE FOR TRANSPORT TIME STEP   1 IN FLOW TIME STEP 401 STRESS PERIOD   1
     6 TOTAL ITERATIONS

 NO OUTPUT CONTROL FOR STRESS PERIOD    1   TIME STEP 401
 
 SOLVING FOR HEAD 
 FLOW MODEL IS TRANSIENT
 FLOW MODEL CONTAINS CONSTANT-HEAD CELLS


 MAXIMUM STEPSIZE DURING WHICH ANY PARTICLE CANNOT MOVE MORE THAN ONE CELL
 =  5.318    (WHEN MIN. R.F.=1)  AT K=  28, I=   1, J=  67

 MAXIMUM STEPSIZE WHICH MEETS STABILITY CRITERION OF THE ADVECTION TERM
 (FOR PURE FINITE-DIFFERENCE OPTION, MIXELM=0) 
 =  4.211    (WHEN MIN. R.F.=1)  AT K=  30, I=   1, J=  27


 TOTAL NUMBER OF POINT SOURCES/SINKS PRESENT IN THE FLOW MODEL =    62

 MAXIMUM STEPSIZE WHICH MEETS STABILITY CRITERION OF THE SINK & SOURCE TERM
 =  97.35    (WHEN MIN. R.F.=1)  AT K=   2, I=   1, J= 120

 MAXIMUM STEPSIZE WHICH MEETS STABILITY CRITERION OF THE DISPERSION TERM
 =  20.29    (WHEN MIN. R.F.=1)  AT K=   1, I=   1, J=  31
     1 CALLS TO GCG PACKAGE FOR TRANSPORT TIME STEP   2 IN FLOW TIME STEP 401 STRESS PERIOD   1
     6 TOTAL ITERATIONS
 
 SOLVING FOR HEAD 
 FLOW MODEL IS TRANSIENT
 FLOW MODEL CONTAINS CONSTANT-HEAD CELLS


 MAXIMUM STEPSIZE DURING WHICH ANY PARTICLE CANNOT MOVE MORE THAN ONE CELL
 =  5.325    (WHEN MIN. R.F.=1)  AT K=  28, I=   1, J=  67

 MAXIMUM STEPSIZE WHICH MEETS STABILITY CRITERION OF THE ADVECTION TERM
 (FOR PURE FINITE-DIFFERENCE OPTION, MIXELM=0) 
 =  4.281    (WHEN MIN. R.F.=1)  AT K=   2, I=   1, J=  76


 TOTAL NUMBER OF POINT SOURCES/SINKS PRESENT IN THE FLOW MODEL =    62

 MAXIMUM STEPSIZE WHICH MEETS STABILITY CRITERION OF THE SINK & SOURCE TERM
 =  95.77    (WHEN MIN. R.F.=1)  AT K=   2, I=   1, J= 120

 MAXIMUM STEPSIZE WHICH MEETS STABILITY CRITERION OF THE DISPERSION TERM
 =  20.29    (WHEN MIN. R.F.=1)  AT K=   1, I=   1, J=  31
     1 CALLS TO GCG PACKAGE FOR TRANSPORT TIME STEP   3 IN FLOW TIME STEP 401 STRESS PERIOD   1
     6 TOTAL ITERATIONS
 
 SOLVING FOR HEAD 
 FLOW MODEL IS TRANSIENT
 FLOW MODEL CONTAINS CONSTANT-HEAD CELLS


 MAXIMUM STEPSIZE DURING WHICH ANY PARTICLE CANNOT MOVE MORE THAN ONE CELL
 =  5.338    (WHEN MIN. R.F.=1)  AT K=  28, I=   1, J=  67

 MAXIMUM STEPSIZE WHICH MEETS STABILITY CRITERION OF THE ADVECTION TERM
 (FOR PURE FINITE-DIFFERENCE OPTION, MIXELM=0) 
 =  4.393    (WHEN MIN. R.F.=1)  AT K=   2, I=   1, J=  76


 TOTAL NUMBER OF POINT SOURCES/SINKS PRESENT IN THE FLOW MODEL =    62

 MAXIMUM STEPSIZE WHICH MEETS STABILITY CRITERION OF THE SINK & SOURCE TERM
 =  94.53    (WHEN MIN. R.F.=1)  AT K=   2, I=   1, J= 120

 MAXIMUM STEPSIZE WHICH MEETS STABILITY CRITERION OF THE DISPERSION TERM
 =  20.29    (WHEN MIN. R.F.=1)  AT K=   1, I=   1, J=  31
     1 CALLS TO GCG PACKAGE FOR TRANSPORT TIME STEP   4 IN FLOW TIME STEP 401 STRESS PERIOD   1
     4 TOTAL ITERATIONS
  MAXIMUM CONCENTRATION CHANGES FOR EACH ITERATION:
  MAX. CHANGE LAYER,ROW,COL MAX. CHANGE LAYER,ROW,COL MAX. CHANGE LAYER,ROW,COL MAX. CHANGE LAYER,ROW,COL MAX. CHANGE LAYER,ROW,COL
 ------------------------------------------------------------------------------------------------------------------------------------
   0.6659E-02 (  2,  1, 77)  0.5560E-04 (  2,  1, 77)  0.7874E-06 (  2,  1, 78)  0.1152E-07 (  3,  1, 78)


                                          ================================================
                                                         FROM TIME =   4010.0     TO    4020.0    

 
 SOLVING FOR HEAD 
 FLOW MODEL IS TRANSIENT
 FLOW MODEL CONTAINS CONSTANT-HEAD CELLS


 MAXIMUM STEPSIZE DURING WHICH ANY PARTICLE CANNOT MOVE MORE THAN ONE CELL
 =  5.343    (WHEN MIN. R.F.=1)  AT K=  28, I=   1, J=  67

 MAXIMUM STEPSIZE WHICH MEETS STABILITY CRITERION OF THE ADVECTION TERM
 (FOR PURE FINITE-DIFFERENCE OPTION, MIXELM=0) 
 =  4.446    (WHEN MIN. R.F.=1)  AT K=   2, I=   1, J=  76


 TOTAL NUMBER OF POINT SOURCES/SINKS PRESENT IN THE FLOW MODEL =    62

 MAXIMUM STEPSIZE WHICH MEETS STABILITY CRITERION OF THE SINK & SOURCE TERM
 =  94.34    (WHEN MIN. R.F.=1)  AT K=   2, I=   1, J= 120

 MAXIMUM STEPSIZE WHICH MEETS STABILITY CRITERION OF THE DISPERSION TERM
 =  20.29    (WHEN MIN. R.F.=1)  AT K=   1, I=   1, J=  31


     1 CALLS TO GCG PACKAGE FOR TRANSPORT TIME STEP   1 IN FLOW TIME STEP 402 STRESS PERIOD   1
     6 TOTAL ITERATIONS

 NO OUTPUT CONTROL FOR STRESS PERIOD    1   TIME STEP 402
 
 SOLVING FOR HEAD 
 FLOW MODEL IS TRANSIENT
 FLOW MODEL CONTAINS CONSTANT-HEAD CELLS


 MAXIMUM STEPSIZE DURING WHICH ANY PARTICLE CANNOT MOVE MORE THAN ONE CELL
 =  5.363    (WHEN MIN. R.F.=1)  AT K=  28, I=   1, J=  67

 MAXIMUM STEPSIZE WHICH MEETS STABILITY CRITERION OF THE ADVECTION TERM
 (FOR PURE FINITE-DIFFERENCE OPTION, MIXELM=0) 
 =  4.319    (WHEN MIN. R.F.=1)  AT K=  30, I=   1, J=  26


 TOTAL NUMBER OF POINT SOURCES/SINKS PRESENT IN THE FLOW MODEL =    62

 MAXIMUM STEPSIZE WHICH MEETS STABILITY CRITERION OF THE SINK & SOURCE TERM
 =  91.37    (WHEN MIN. R.F.=1)  AT K=   2, I=   1, J= 120

 MAXIMUM STEPSIZE WHICH MEETS STABILITY CRITERION OF THE DISPERSION TERM
 =  20.29    (WHEN MIN. R.F.=1)  AT K=   1, I=   1, J=  31
     1 CALLS TO GCG PACKAGE FOR TRANSPORT TIME STEP   2 IN FLOW TIME STEP 402 STRESS PERIOD   1
     6 TOTAL ITERATIONS
 
 SOLVING FOR HEAD 
 FLOW MODEL IS TRANSIENT
 FLOW MODEL CONTAINS CONSTANT-HEAD CELLS


 MAXIMUM STEPSIZE DURING WHICH ANY PARTICLE CANNOT MOVE MORE THAN ONE CELL
 =  5.388    (WHEN MIN. R.F.=1)  AT K=  28, I=   1, J=  67

 MAXIMUM STEPSIZE WHICH MEETS STABILITY CRITERION OF THE ADVECTION TERM
 (FOR PURE FINITE-DIFFERENCE OPTION, MIXELM=0) 
 =  4.181    (WHEN MIN. R.F.=1)  AT K=  30, I=   1, J=  26


 TOTAL NUMBER OF POINT SOURCES/SINKS PRESENT IN THE FLOW MODEL =    62

 MAXIMUM STEPSIZE WHICH MEETS STABILITY CRITERION OF THE SINK & SOURCE TERM
 =  90.35    (WHEN MIN. R.F.=1)  AT K=   2, I=   1, J= 120

 MAXIMUM STEPSIZE WHICH MEETS STABILITY CRITERION OF THE DISPERSION TERM
 =  20.29    (WHEN MIN. R.F.=1)  AT K=   1, I=   1, J=  31
     1 CALLS TO GCG PACKAGE FOR TRANSPORT TIME STEP   3 IN FLOW TIME STEP 402 STRESS PERIOD   1
     6 TOTAL ITERATIONS
 
 SOLVING FOR HEAD 
 FLOW MODEL IS TRANSIENT
 FLOW MODEL CONTAINS CONSTANT-HEAD CELLS


 MAXIMUM STEPSIZE DURING WHICH ANY PARTICLE CANNOT MOVE MORE THAN ONE CELL
 =  5.416    (WHEN MIN. R.F.=1)  AT K=  28, I=   1, J=  67

 MAXIMUM STEPSIZE WHICH MEETS STABILITY CRITERION OF THE ADVECTION TERM
 (FOR PURE FINITE-DIFFERENCE OPTION, MIXELM=0) 
 =  4.183    (WHEN MIN. R.F.=1)  AT K=  30, I=   1, J=  26


 TOTAL NUMBER OF POINT SOURCES/SINKS PRESENT IN THE FLOW MODEL =    62

 MAXIMUM STEPSIZE WHICH MEETS STABILITY CRITERION OF THE SINK & SOURCE TERM
 =  89.75    (WHEN MIN. R.F.=1)  AT K=   2, I=   1, J= 120

 MAXIMUM STEPSIZE WHICH MEETS STABILITY CRITERION OF THE DISPERSION TERM
 =  20.29    (WHEN MIN. R.F.=1)  AT K=   1, I=   1, J=  31
     1 CALLS TO GCG PACKAGE FOR TRANSPORT TIME STEP   4 IN FLOW TIME STEP 402 STRESS PERIOD   1
     3 TOTAL ITERATIONS
  MAXIMUM CONCENTRATION CHANGES FOR EACH ITERATION:
  MAX. CHANGE LAYER,ROW,COL MAX. CHANGE LAYER,ROW,COL MAX. CHANGE LAYER,ROW,COL MAX. CHANGE LAYER,ROW,COL MAX. CHANGE LAYER,ROW,COL
 ------------------------------------------------------------------------------------------------------------------------------------
   0.1658E-02 (  2,  1, 83)  0.3609E-05 (  2,  1, 83)  0.9005E-08 (  2,  1, 84)


                                          ================================================
                                                         FROM TIME =   4020.0     TO    4030.0    

 
 SOLVING FOR HEAD 
 FLOW MODEL IS TRANSIENT
 FLOW MODEL CONTAINS CONSTANT-HEAD CELLS


 MAXIMUM STEPSIZE DURING WHICH ANY PARTICLE CANNOT MOVE MORE THAN ONE CELL
 =  5.417    (WHEN MIN. R.F.=1)  AT K=  28, I=   1, J=  67

 MAXIMUM STEPSIZE WHICH MEETS STABILITY CRITERION OF THE ADVECTION TERM
 (FOR PURE FINITE-DIFFERENCE OPTION, MIXELM=0) 
 =  4.188    (WHEN MIN. R.F.=1)  AT K=  30, I=   1, J=  26


 TOTAL NUMBER OF POINT SOURCES/SINKS PRESENT IN THE FLOW MODEL =    62

 MAXIMUM STEPSIZE WHICH MEETS STABILITY CRITERION OF THE SINK & SOURCE TERM
 =  89.94    (WHEN MIN. R.F.=1)  AT K=   2, I=   1, J= 120

 MAXIMUM STEPSIZE WHICH MEETS STABILITY CRITERION OF THE DISPERSION TERM
 =  20.29    (WHEN MIN. R.F.=1)  AT K=   1, I=   1, J=  31


     1 CALLS TO GCG PACKAGE FOR TRANSPORT TIME STEP   1 IN FLOW TIME STEP 403 STRESS PERIOD   1
     6 TOTAL ITERATIONS

 NO OUTPUT CONTROL FOR STRESS PERIOD    1   TIME STEP 403
 
 SOLVING FOR HEAD 
 FLOW MODEL IS TRANSIENT
 FLOW MODEL CONTAINS CONSTANT-HEAD CELLS


 MAXIMUM STEPSIZE DURING WHICH ANY PARTICLE CANNOT MOVE MORE THAN ONE CELL
 =  5.449    (WHEN MIN. R.F.=1)  AT K=  28, I=   1, J=  67

 MAXIMUM STEPSIZE WHICH MEETS STABILITY CRITERION OF THE ADVECTION TERM
 (FOR PURE FINITE-DIFFERENCE OPTION, MIXELM=0) 
 =  4.183    (WHEN MIN. R.F.=1)  AT K=   2, I=   1, J=  75


 TOTAL NUMBER OF POINT SOURCES/SINKS PRESENT IN THE FLOW MODEL =    62

 MAXIMUM STEPSIZE WHICH MEETS STABILITY CRITERION OF THE SINK & SOURCE TERM
 =  87.44    (WHEN MIN. R.F.=1)  AT K=   2, I=   1, J= 120

 MAXIMUM STEPSIZE WHICH MEETS STABILITY CRITERION OF THE DISPERSION TERM
 =  20.29    (WHEN MIN. R.F.=1)  AT K=   1, I=   1, J=  31
     1 CALLS TO GCG PACKAGE FOR TRANSPORT TIME STEP   2 IN FLOW TIME STEP 403 STRESS PERIOD   1
     6 TOTAL ITERATIONS
 
 SOLVING FOR HEAD 
 FLOW MODEL IS TRANSIENT
 FLOW MODEL CONTAINS CONSTANT-HEAD CELLS


 MAXIMUM STEPSIZE DURING WHICH ANY PARTICLE CANNOT MOVE MORE THAN ONE CELL
 =  5.293    (WHEN MIN. R.F.=1)  AT K=   4, I=   1, J=  74

 MAXIMUM STEPSIZE WHICH MEETS STABILITY CRITERION OF THE ADVECTION TERM
 (FOR PURE FINITE-DIFFERENCE OPTION, MIXELM=0) 
 =  3.949    (WHEN MIN. R.F.=1)  AT K=   2, I=   1, J=  81


 TOTAL NUMBER OF POINT SOURCES/SINKS PRESENT IN THE FLOW MODEL =    62

 MAXIMUM STEPSIZE WHICH MEETS STABILITY CRITERION OF THE SINK & SOURCE TERM
 =  87.25    (WHEN MIN. R.F.=1)  AT K=   2, I=   1, J= 120

 MAXIMUM STEPSIZE WHICH MEETS STABILITY CRITERION OF THE DISPERSION TERM
 =  20.29    (WHEN MIN. R.F.=1)  AT K=   1, I=   1, J=  31
     1 CALLS TO GCG PACKAGE FOR TRANSPORT TIME STEP   3 IN FLOW TIME STEP 403 STRESS PERIOD   1
     6 TOTAL ITERATIONS
 
 SOLVING FOR HEAD 
 FLOW MODEL IS TRANSIENT
 FLOW MODEL CONTAINS CONSTANT-HEAD CELLS


 MAXIMUM STEPSIZE DURING WHICH ANY PARTICLE CANNOT MOVE MORE THAN ONE CELL
 =  5.138    (WHEN MIN. R.F.=1)  AT K=   4, I=   1, J=  74

 MAXIMUM STEPSIZE WHICH MEETS STABILITY CRITERION OF THE ADVECTION TERM
 (FOR PURE FINITE-DIFFERENCE OPTION, MIXELM=0) 
 =  3.869    (WHEN MIN. R.F.=1)  AT K=   2, I=   1, J=  81


 TOTAL NUMBER OF POINT SOURCES/SINKS PRESENT IN THE FLOW MODEL =    62

 MAXIMUM STEPSIZE WHICH MEETS STABILITY CRITERION OF THE SINK & SOURCE TERM
 =  87.18    (WHEN MIN. R.F.=1)  AT K=   2, I=   1, J= 120

 MAXIMUM STEPSIZE WHICH MEETS STABILITY CRITERION OF THE DISPERSION TERM
 =  20.29    (WHEN MIN. R.F.=1)  AT K=   1, I=   1, J=  31
     1 CALLS TO GCG PACKAGE FOR TRANSPORT TIME STEP   4 IN FLOW TIME STEP 403 STRESS PERIOD   1
     4 TOTAL ITERATIONS
  MAXIMUM CONCENTRATION CHANGES FOR EACH ITERATION:
  MAX. CHANGE LAYER,ROW,COL MAX. CHANGE LAYER,ROW,COL MAX. CHANGE LAYER,ROW,COL MAX. CHANGE LAYER,ROW,COL MAX. CHANGE LAYER,ROW,COL
 ------------------------------------------------------------------------------------------------------------------------------------
   0.7298E-02 (  2,  1, 82)  0.8026E-04 (  2,  1, 82)  0.9358E-06 (  2,  1, 83)  0.1171E-07 (  3,  1, 83)


                                          ================================================
                                                         FROM TIME =   4030.0     TO    4040.0    

 
 SOLVING FOR HEAD 
 FLOW MODEL IS TRANSIENT
 FLOW MODEL CONTAINS CONSTANT-HEAD CELLS


 MAXIMUM STEPSIZE DURING WHICH ANY PARTICLE CANNOT MOVE MORE THAN ONE CELL
 =  5.115    (WHEN MIN. R.F.=1)  AT K=   4, I=   1, J=  74

 MAXIMUM STEPSIZE WHICH MEETS STABILITY CRITERION OF THE ADVECTION TERM
 (FOR PURE FINITE-DIFFERENCE OPTION, MIXELM=0) 
 =  3.892    (WHEN MIN. R.F.=1)  AT K=   2, I=   1, J=  81


 TOTAL NUMBER OF POINT SOURCES/SINKS PRESENT IN THE FLOW MODEL =    62

 MAXIMUM STEPSIZE WHICH MEETS STABILITY CRITERION OF THE SINK & SOURCE TERM
 =  87.08    (WHEN MIN. R.F.=1)  AT K=   2, I=   1, J= 120

 MAXIMUM STEPSIZE WHICH MEETS STABILITY CRITERION OF THE DISPERSION TERM
 =  20.29    (WHEN MIN. R.F.=1)  AT K=   1, I=   1, J=  31


     1 CALLS TO GCG PACKAGE FOR TRANSPORT TIME STEP   1 IN FLOW TIME STEP 404 STRESS PERIOD   1
     6 TOTAL ITERATIONS

 NO OUTPUT CONTROL FOR STRESS PERIOD    1   TIME STEP 404
 
 SOLVING FOR HEAD 
 FLOW MODEL IS TRANSIENT
 FLOW MODEL CONTAINS CONSTANT-HEAD CELLS


 MAXIMUM STEPSIZE DURING WHICH ANY PARTICLE CANNOT MOVE MORE THAN ONE CELL
 =  5.019    (WHEN MIN. R.F.=1)  AT K=   4, I=   1, J=  74

 MAXIMUM STEPSIZE WHICH MEETS STABILITY CRITERION OF THE ADVECTION TERM
 (FOR PURE FINITE-DIFFERENCE OPTION, MIXELM=0) 
 =  4.131    (WHEN MIN. R.F.=1)  AT K=   2, I=   1, J=  81


 TOTAL NUMBER OF POINT SOURCES/SINKS PRESENT IN THE FLOW MODEL =    62

 MAXIMUM STEPSIZE WHICH MEETS STABILITY CRITERION OF THE SINK & SOURCE TERM
 =  84.60    (WHEN MIN. R.F.=1)  AT K=   2, I=   1, J= 120

 MAXIMUM STEPSIZE WHICH MEETS STABILITY CRITERION OF THE DISPERSION TERM
 =  20.29    (WHEN MIN. R.F.=1)  AT K=   1, I=   1, J=  31
     1 CALLS TO GCG PACKAGE FOR TRANSPORT TIME STEP   2 IN FLOW TIME STEP 404 STRESS PERIOD   1
     6 TOTAL ITERATIONS
 
 SOLVING FOR HEAD 
 FLOW MODEL IS TRANSIENT
 FLOW MODEL CONTAINS CONSTANT-HEAD CELLS


 MAXIMUM STEPSIZE DURING WHICH ANY PARTICLE CANNOT MOVE MORE THAN ONE CELL
 =  4.960    (WHEN MIN. R.F.=1)  AT K=   4, I=   1, J=  74

 MAXIMUM STEPSIZE WHICH MEETS STABILITY CRITERION OF THE ADVECTION TERM
 (FOR PURE FINITE-DIFFERENCE OPTION, MIXELM=0) 
 =  3.783    (WHEN MIN. R.F.=1)  AT K=   2, I=   1, J=  80


 TOTAL NUMBER OF POINT SOURCES/SINKS PRESENT IN THE FLOW MODEL =    62

 MAXIMUM STEPSIZE WHICH MEETS STABILITY CRITERION OF THE SINK & SOURCE TERM
 =  83.26    (WHEN MIN. R.F.=1)  AT K=   2, I=   1, J= 120

 MAXIMUM STEPSIZE WHICH MEETS STABILITY CRITERION OF THE DISPERSION TERM
 =  20.29    (WHEN MIN. R.F.=1)  AT K=   1, I=   1, J=  31
     1 CALLS TO GCG PACKAGE FOR TRANSPORT TIME STEP   3 IN FLOW TIME STEP 404 STRESS PERIOD   1
     6 TOTAL ITERATIONS
 
 SOLVING FOR HEAD 
 FLOW MODEL IS TRANSIENT
 FLOW MODEL CONTAINS CONSTANT-HEAD CELLS


 MAXIMUM STEPSIZE DURING WHICH ANY PARTICLE CANNOT MOVE MORE THAN ONE CELL
 =  4.936    (WHEN MIN. R.F.=1)  AT K=   4, I=   1, J=  74

 MAXIMUM STEPSIZE WHICH MEETS STABILITY CRITERION OF THE ADVECTION TERM
 (FOR PURE FINITE-DIFFERENCE OPTION, MIXELM=0) 
 =  3.602    (WHEN MIN. R.F.=1)  AT K=   2, I=   1, J=  80


 TOTAL NUMBER OF POINT SOURCES/SINKS PRESENT IN THE FLOW MODEL =    62

 MAXIMUM STEPSIZE WHICH MEETS STABILITY CRITERION OF THE SINK & SOURCE TERM
 =  83.34    (WHEN MIN. R.F.=1)  AT K=   2, I=   1, J= 120

 MAXIMUM STEPSIZE WHICH MEETS STABILITY CRITERION OF THE DISPERSION TERM
 =  20.29    (WHEN MIN. R.F.=1)  AT K=   1, I=   1, J=  31
     1 CALLS TO GCG PACKAGE FOR TRANSPORT TIME STEP   4 IN FLOW TIME STEP 404 STRESS PERIOD   1
     5 TOTAL ITERATIONS
  MAXIMUM CONCENTRATION CHANGES FOR EACH ITERATION:
  MAX. CHANGE LAYER,ROW,COL MAX. CHANGE LAYER,ROW,COL MAX. CHANGE LAYER,ROW,COL MAX. CHANGE LAYER,ROW,COL MAX. CHANGE LAYER,ROW,COL
 ------------------------------------------------------------------------------------------------------------------------------------
   0.1170E-01 (  2,  1, 81)  0.2142E-03 (  2,  1, 81)  0.5337E-05 (  3,  1, 79)  0.1639E-06 (  3,  1, 77)  0.3292E-08 (  4,  1, 77)


                                          ================================================
                                                         FROM TIME =   4040.0     TO    4050.0    

 
 SOLVING FOR HEAD 
 FLOW MODEL IS TRANSIENT
 FLOW MODEL CONTAINS CONSTANT-HEAD CELLS


 MAXIMUM STEPSIZE DURING WHICH ANY PARTICLE CANNOT MOVE MORE THAN ONE CELL
 =  4.939    (WHEN MIN. R.F.=1)  AT K=   4, I=   1, J=  74

 MAXIMUM STEPSIZE WHICH MEETS STABILITY CRITERION OF THE ADVECTION TERM
 (FOR PURE FINITE-DIFFERENCE OPTION, MIXELM=0) 
 =  3.596    (WHEN MIN. R.F.=1)  AT K=   2, I=   1, J=  80


 TOTAL NUMBER OF POINT SOURCES/SINKS PRESENT IN THE FLOW MODEL =    62

 MAXIMUM STEPSIZE WHICH MEETS STABILITY CRITERION OF THE SINK & SOURCE TERM
 =  86.76    (WHEN MIN. R.F.=1)  AT K=   2, I=   1, J= 120

 MAXIMUM STEPSIZE WHICH MEETS STABILITY CRITERION OF THE DISPERSION TERM
 =  20.29    (WHEN MIN. R.F.=1)  AT K=   1, I=   1, J=  31


     1 CALLS TO GCG PACKAGE FOR TRANSPORT TIME STEP   1 IN FLOW TIME STEP 405 STRESS PERIOD   1
     6 TOTAL ITERATIONS

 NO OUTPUT CONTROL FOR STRESS PERIOD    1   TIME STEP 405
 
 SOLVING FOR HEAD 
 FLOW MODEL IS TRANSIENT
 FLOW MODEL CONTAINS CONSTANT-HEAD CELLS


 MAXIMUM STEPSIZE DURING WHICH ANY PARTICLE CANNOT MOVE MORE THAN ONE CELL
 =  4.971    (WHEN MIN. R.F.=1)  AT K=   4, I=   1, J=  74

 MAXIMUM STEPSIZE WHICH MEETS STABILITY CRITERION OF THE ADVECTION TERM
 (FOR PURE FINITE-DIFFERENCE OPTION, MIXELM=0) 
 =  3.669    (WHEN MIN. R.F.=1)  AT K=   2, I=   1, J=  80


 TOTAL NUMBER OF POINT SOURCES/SINKS PRESENT IN THE FLOW MODEL =    62

 MAXIMUM STEPSIZE WHICH MEETS STABILITY CRITERION OF THE SINK & SOURCE TERM
 =  85.47    (WHEN MIN. R.F.=1)  AT K=   2, I=   1, J= 120

 MAXIMUM STEPSIZE WHICH MEETS STABILITY CRITERION OF THE DISPERSION TERM
 =  20.29    (WHEN MIN. R.F.=1)  AT K=   1, I=   1, J=  31
     1 CALLS TO GCG PACKAGE FOR TRANSPORT TIME STEP   2 IN FLOW TIME STEP 405 STRESS PERIOD   1
     6 TOTAL ITERATIONS
 
 SOLVING FOR HEAD 
 FLOW MODEL IS TRANSIENT
 FLOW MODEL CONTAINS CONSTANT-HEAD CELLS


 MAXIMUM STEPSIZE DURING WHICH ANY PARTICLE CANNOT MOVE MORE THAN ONE CELL
 =  5.038    (WHEN MIN. R.F.=1)  AT K=   4, I=   1, J=  74

 MAXIMUM STEPSIZE WHICH MEETS STABILITY CRITERION OF THE ADVECTION TERM
 (FOR PURE FINITE-DIFFERENCE OPTION, MIXELM=0) 
 =  3.961    (WHEN MIN. R.F.=1)  AT K=   2, I=   1, J=  80


 TOTAL NUMBER OF POINT SOURCES/SINKS PRESENT IN THE FLOW MODEL =    62

 MAXIMUM STEPSIZE WHICH MEETS STABILITY CRITERION OF THE SINK & SOURCE TERM
 =  85.59    (WHEN MIN. R.F.=1)  AT K=   2, I=   1, J= 120

 MAXIMUM STEPSIZE WHICH MEETS STABILITY CRITERION OF THE DISPERSION TERM
 =  20.29    (WHEN MIN. R.F.=1)  AT K=   1, I=   1, J=  31
     1 CALLS TO GCG PACKAGE FOR TRANSPORT TIME STEP   3 IN FLOW TIME STEP 405 STRESS PERIOD   1
     6 TOTAL ITERATIONS
 
 SOLVING FOR HEAD 
 FLOW MODEL IS TRANSIENT
 FLOW MODEL CONTAINS CONSTANT-HEAD CELLS


 MAXIMUM STEPSIZE DURING WHICH ANY PARTICLE CANNOT MOVE MORE THAN ONE CELL
 =  5.098    (WHEN MIN. R.F.=1)  AT K=   5, I=   1, J=  74

 MAXIMUM STEPSIZE WHICH MEETS STABILITY CRITERION OF THE ADVECTION TERM
 (FOR PURE FINITE-DIFFERENCE OPTION, MIXELM=0) 
 =  3.749    (WHEN MIN. R.F.=1)  AT K=   2, I=   1, J=  79


 TOTAL NUMBER OF POINT SOURCES/SINKS PRESENT IN THE FLOW MODEL =    62

 MAXIMUM STEPSIZE WHICH MEETS STABILITY CRITERION OF THE SINK & SOURCE TERM
 =  85.04    (WHEN MIN. R.F.=1)  AT K=   2, I=   1, J= 120

 MAXIMUM STEPSIZE WHICH MEETS STABILITY CRITERION OF THE DISPERSION TERM
 =  20.29    (WHEN MIN. R.F.=1)  AT K=   1, I=   1, J=  31
     1 CALLS TO GCG PACKAGE FOR TRANSPORT TIME STEP   4 IN FLOW TIME STEP 405 STRESS PERIOD   1
     5 TOTAL ITERATIONS
  MAXIMUM CONCENTRATION CHANGES FOR EACH ITERATION:
  MAX. CHANGE LAYER,ROW,COL MAX. CHANGE LAYER,ROW,COL MAX. CHANGE LAYER,ROW,COL MAX. CHANGE LAYER,ROW,COL MAX. CHANGE LAYER,ROW,COL
 ------------------------------------------------------------------------------------------------------------------------------------
   0.2092E-01 (  2,  1, 81)  0.6463E-03 (  2,  1, 79)  0.2334E-04 (  3,  1, 79)  0.1475E-05 (  3,  1, 45)  0.5047E-07 (  4,  1, 45)


                                          ================================================
                                                         FROM TIME =   4050.0     TO    4060.0    

 
 SOLVING FOR HEAD 
 FLOW MODEL IS TRANSIENT
 FLOW MODEL CONTAINS CONSTANT-HEAD CELLS


 MAXIMUM STEPSIZE DURING WHICH ANY PARTICLE CANNOT MOVE MORE THAN ONE CELL
 =  5.148    (WHEN MIN. R.F.=1)  AT K=   5, I=   1, J=  74

 MAXIMUM STEPSIZE WHICH MEETS STABILITY CRITERION OF THE ADVECTION TERM
 (FOR PURE FINITE-DIFFERENCE OPTION, MIXELM=0) 
 =  3.639    (WHEN MIN. R.F.=1)  AT K=   2, I=   1, J=  79


 TOTAL NUMBER OF POINT SOURCES/SINKS PRESENT IN THE FLOW MODEL =    62

 MAXIMUM STEPSIZE WHICH MEETS STABILITY CRITERION OF THE SINK & SOURCE TERM
 =  85.38    (WHEN MIN. R.F.=1)  AT K=   2, I=   1, J= 120

 MAXIMUM STEPSIZE WHICH MEETS STABILITY CRITERION OF THE DISPERSION TERM
 =  20.29    (WHEN MIN. R.F.=1)  AT K=   1, I=   1, J=  31


     1 CALLS TO GCG PACKAGE FOR TRANSPORT TIME STEP   1 IN FLOW TIME STEP 406 STRESS PERIOD   1
     6 TOTAL ITERATIONS

 NO OUTPUT CONTROL FOR STRESS PERIOD    1   TIME STEP 406
 
 SOLVING FOR HEAD 
 FLOW MODEL IS TRANSIENT
 FLOW MODEL CONTAINS CONSTANT-HEAD CELLS


 MAXIMUM STEPSIZE DURING WHICH ANY PARTICLE CANNOT MOVE MORE THAN ONE CELL
 =  5.249    (WHEN MIN. R.F.=1)  AT K=   5, I=   1, J=  74

 MAXIMUM STEPSIZE WHICH MEETS STABILITY CRITERION OF THE ADVECTION TERM
 (FOR PURE FINITE-DIFFERENCE OPTION, MIXELM=0) 
 =  3.576    (WHEN MIN. R.F.=1)  AT K=   2, I=   1, J=  79


 TOTAL NUMBER OF POINT SOURCES/SINKS PRESENT IN THE FLOW MODEL =    62

 MAXIMUM STEPSIZE WHICH MEETS STABILITY CRITERION OF THE SINK & SOURCE TERM
 =  85.13    (WHEN MIN. R.F.=1)  AT K=   2, I=   1, J= 120

 MAXIMUM STEPSIZE WHICH MEETS STABILITY CRITERION OF THE DISPERSION TERM
 =  20.29    (WHEN MIN. R.F.=1)  AT K=   1, I=   1, J=  31
     1 CALLS TO GCG PACKAGE FOR TRANSPORT TIME STEP   2 IN FLOW TIME STEP 406 STRESS PERIOD   1
     6 TOTAL ITERATIONS
 
 SOLVING FOR HEAD 
 FLOW MODEL IS TRANSIENT
 FLOW MODEL CONTAINS CONSTANT-HEAD CELLS


 MAXIMUM STEPSIZE DURING WHICH ANY PARTICLE CANNOT MOVE MORE THAN ONE CELL
 =  5.380    (WHEN MIN. R.F.=1)  AT K=   5, I=   1, J=  74

 MAXIMUM STEPSIZE WHICH MEETS STABILITY CRITERION OF THE ADVECTION TERM
 (FOR PURE FINITE-DIFFERENCE OPTION, MIXELM=0) 
 =  3.645    (WHEN MIN. R.F.=1)  AT K=   2, I=   1, J=  79


 TOTAL NUMBER OF POINT SOURCES/SINKS PRESENT IN THE FLOW MODEL =    62

 MAXIMUM STEPSIZE WHICH MEETS STABILITY CRITERION OF THE SINK & SOURCE TERM
 =  86.58    (WHEN MIN. R.F.=1)  AT K=   2, I=   1, J= 120

 MAXIMUM STEPSIZE WHICH MEETS STABILITY CRITERION OF THE DISPERSION TERM
 =  20.29    (WHEN MIN. R.F.=1)  AT K=   1, I=   1, J=  31
     1 CALLS TO GCG PACKAGE FOR TRANSPORT TIME STEP   3 IN FLOW TIME STEP 406 STRESS PERIOD   1
     6 TOTAL ITERATIONS
 
 SOLVING FOR HEAD 
 FLOW MODEL IS TRANSIENT
 FLOW MODEL CONTAINS CONSTANT-HEAD CELLS


 MAXIMUM STEPSIZE DURING WHICH ANY PARTICLE CANNOT MOVE MORE THAN ONE CELL
 =  5.507    (WHEN MIN. R.F.=1)  AT K=   6, I=   1, J=  74

 MAXIMUM STEPSIZE WHICH MEETS STABILITY CRITERION OF THE ADVECTION TERM
 (FOR PURE FINITE-DIFFERENCE OPTION, MIXELM=0) 
 =  3.886    (WHEN MIN. R.F.=1)  AT K=   2, I=   1, J=  79


 TOTAL NUMBER OF POINT SOURCES/SINKS PRESENT IN THE FLOW MODEL =    62

 MAXIMUM STEPSIZE WHICH MEETS STABILITY CRITERION OF THE SINK & SOURCE TERM
 =  87.54    (WHEN MIN. R.F.=1)  AT K=   2, I=   1, J= 120

 MAXIMUM STEPSIZE WHICH MEETS STABILITY CRITERION OF THE DISPERSION TERM
 =  20.29    (WHEN MIN. R.F.=1)  AT K=   1, I=   1, J=  31
     1 CALLS TO GCG PACKAGE FOR TRANSPORT TIME STEP   4 IN FLOW TIME STEP 406 STRESS PERIOD   1
     5 TOTAL ITERATIONS
  MAXIMUM CONCENTRATION CHANGES FOR EACH ITERATION:
  MAX. CHANGE LAYER,ROW,COL MAX. CHANGE LAYER,ROW,COL MAX. CHANGE LAYER,ROW,COL MAX. CHANGE LAYER,ROW,COL MAX. CHANGE LAYER,ROW,COL
 ------------------------------------------------------------------------------------------------------------------------------------
   0.2156E-01 (  2,  1, 80)  0.6353E-03 (  2,  1, 78)  0.2575E-04 (  3,  1, 78)  0.1075E-05 (  3,  1, 76)  0.3028E-07 (  4,  1, 79)


                                          ================================================
                                                         FROM TIME =   4060.0     TO    4070.0    

 
 SOLVING FOR HEAD 
 FLOW MODEL IS TRANSIENT
 FLOW MODEL CONTAINS CONSTANT-HEAD CELLS


 MAXIMUM STEPSIZE DURING WHICH ANY PARTICLE CANNOT MOVE MORE THAN ONE CELL
 =  5.589    (WHEN MIN. R.F.=1)  AT K=   6, I=   1, J=  74

 MAXIMUM STEPSIZE WHICH MEETS STABILITY CRITERION OF THE ADVECTION TERM
 (FOR PURE FINITE-DIFFERENCE OPTION, MIXELM=0) 
 =  4.062    (WHEN MIN. R.F.=1)  AT K=   2, I=   1, J=  78


 TOTAL NUMBER OF POINT SOURCES/SINKS PRESENT IN THE FLOW MODEL =    62

 MAXIMUM STEPSIZE WHICH MEETS STABILITY CRITERION OF THE SINK & SOURCE TERM
 =  88.34    (WHEN MIN. R.F.=1)  AT K=   2, I=   1, J= 120

 MAXIMUM STEPSIZE WHICH MEETS STABILITY CRITERION OF THE DISPERSION TERM
 =  20.29    (WHEN MIN. R.F.=1)  AT K=   1, I=   1, J=  31


     1 CALLS TO GCG PACKAGE FOR TRANSPORT TIME STEP   1 IN FLOW TIME STEP 407 STRESS PERIOD   1
     6 TOTAL ITERATIONS

 NO OUTPUT CONTROL FOR STRESS PERIOD    1   TIME STEP 407
 
 SOLVING FOR HEAD 
 FLOW MODEL IS TRANSIENT
 FLOW MODEL CONTAINS CONSTANT-HEAD CELLS


 MAXIMUM STEPSIZE DURING WHICH ANY PARTICLE CANNOT MOVE MORE THAN ONE CELL
 =  5.610    (WHEN MIN. R.F.=1)  AT K=   4, I=   1, J=  60

 MAXIMUM STEPSIZE WHICH MEETS STABILITY CRITERION OF THE ADVECTION TERM
 (FOR PURE FINITE-DIFFERENCE OPTION, MIXELM=0) 
 =  3.777    (WHEN MIN. R.F.=1)  AT K=   2, I=   1, J=  78


 TOTAL NUMBER OF POINT SOURCES/SINKS PRESENT IN THE FLOW MODEL =    62

 MAXIMUM STEPSIZE WHICH MEETS STABILITY CRITERION OF THE SINK & SOURCE TERM
 =  87.44    (WHEN MIN. R.F.=1)  AT K=   2, I=   1, J= 120

 MAXIMUM STEPSIZE WHICH MEETS STABILITY CRITERION OF THE DISPERSION TERM
 =  20.29    (WHEN MIN. R.F.=1)  AT K=   1, I=   1, J=  31
     1 CALLS TO GCG PACKAGE FOR TRANSPORT TIME STEP   2 IN FLOW TIME STEP 407 STRESS PERIOD   1
     6 TOTAL ITERATIONS
 
 SOLVING FOR HEAD 
 FLOW MODEL IS TRANSIENT
 FLOW MODEL CONTAINS CONSTANT-HEAD CELLS


 MAXIMUM STEPSIZE DURING WHICH ANY PARTICLE CANNOT MOVE MORE THAN ONE CELL
 =  5.607    (WHEN MIN. R.F.=1)  AT K=   4, I=   1, J=  60

 MAXIMUM STEPSIZE WHICH MEETS STABILITY CRITERION OF THE ADVECTION TERM
 (FOR PURE FINITE-DIFFERENCE OPTION, MIXELM=0) 
 =  3.654    (WHEN MIN. R.F.=1)  AT K=   2, I=   1, J=  78


 TOTAL NUMBER OF POINT SOURCES/SINKS PRESENT IN THE FLOW MODEL =    62

 MAXIMUM STEPSIZE WHICH MEETS STABILITY CRITERION OF THE SINK & SOURCE TERM
 =  88.08    (WHEN MIN. R.F.=1)  AT K=   2, I=   1, J= 120

 MAXIMUM STEPSIZE WHICH MEETS STABILITY CRITERION OF THE DISPERSION TERM
 =  20.29    (WHEN MIN. R.F.=1)  AT K=   1, I=   1, J=  31
     1 CALLS TO GCG PACKAGE FOR TRANSPORT TIME STEP   3 IN FLOW TIME STEP 407 STRESS PERIOD   1
     6 TOTAL ITERATIONS
 
 SOLVING FOR HEAD 
 FLOW MODEL IS TRANSIENT
 FLOW MODEL CONTAINS CONSTANT-HEAD CELLS


 MAXIMUM STEPSIZE DURING WHICH ANY PARTICLE CANNOT MOVE MORE THAN ONE CELL
 =  5.605    (WHEN MIN. R.F.=1)  AT K=   4, I=   1, J=  60

 MAXIMUM STEPSIZE WHICH MEETS STABILITY CRITERION OF THE ADVECTION TERM
 (FOR PURE FINITE-DIFFERENCE OPTION, MIXELM=0) 
 =  3.671    (WHEN MIN. R.F.=1)  AT K=   2, I=   1, J=  78


 TOTAL NUMBER OF POINT SOURCES/SINKS PRESENT IN THE FLOW MODEL =    62

 MAXIMUM STEPSIZE WHICH MEETS STABILITY CRITERION OF THE SINK & SOURCE TERM
 =  89.62    (WHEN MIN. R.F.=1)  AT K=   2, I=   1, J= 120

 MAXIMUM STEPSIZE WHICH MEETS STABILITY CRITERION OF THE DISPERSION TERM
 =  20.29    (WHEN MIN. R.F.=1)  AT K=   1, I=   1, J=  31
     1 CALLS TO GCG PACKAGE FOR TRANSPORT TIME STEP   4 IN FLOW TIME STEP 407 STRESS PERIOD   1
     5 TOTAL ITERATIONS
  MAXIMUM CONCENTRATION CHANGES FOR EACH ITERATION:
  MAX. CHANGE LAYER,ROW,COL MAX. CHANGE LAYER,ROW,COL MAX. CHANGE LAYER,ROW,COL MAX. CHANGE LAYER,ROW,COL MAX. CHANGE LAYER,ROW,COL
 ------------------------------------------------------------------------------------------------------------------------------------
   0.1463E-01 (  2,  1, 79)  0.2808E-03 (  2,  1, 79)  0.6904E-05 (  2,  1, 80)  0.1977E-06 (  3,  1, 80)  0.4916E-08 (  4,  1, 79)


                                          ================================================
                                                         FROM TIME =   4070.0     TO    4080.0    

 
 SOLVING FOR HEAD 
 FLOW MODEL IS TRANSIENT
 FLOW MODEL CONTAINS CONSTANT-HEAD CELLS


 MAXIMUM STEPSIZE DURING WHICH ANY PARTICLE CANNOT MOVE MORE THAN ONE CELL
 =  5.609    (WHEN MIN. R.F.=1)  AT K=   4, I=   1, J=  60

 MAXIMUM STEPSIZE WHICH MEETS STABILITY CRITERION OF THE ADVECTION TERM
 (FOR PURE FINITE-DIFFERENCE OPTION, MIXELM=0) 
 =  3.720    (WHEN MIN. R.F.=1)  AT K=   2, I=   1, J=  78


 TOTAL NUMBER OF POINT SOURCES/SINKS PRESENT IN THE FLOW MODEL =    62

 MAXIMUM STEPSIZE WHICH MEETS STABILITY CRITERION OF THE SINK & SOURCE TERM
 =  91.98    (WHEN MIN. R.F.=1)  AT K=   2, I=   1, J= 120

 MAXIMUM STEPSIZE WHICH MEETS STABILITY CRITERION OF THE DISPERSION TERM
 =  20.29    (WHEN MIN. R.F.=1)  AT K=   1, I=   1, J=  31


     1 CALLS TO GCG PACKAGE FOR TRANSPORT TIME STEP   1 IN FLOW TIME STEP 408 STRESS PERIOD   1
     6 TOTAL ITERATIONS

 NO OUTPUT CONTROL FOR STRESS PERIOD    1   TIME STEP 408
 
 SOLVING FOR HEAD 
 FLOW MODEL IS TRANSIENT
 FLOW MODEL CONTAINS CONSTANT-HEAD CELLS


 MAXIMUM STEPSIZE DURING WHICH ANY PARTICLE CANNOT MOVE MORE THAN ONE CELL
 =  5.609    (WHEN MIN. R.F.=1)  AT K=   4, I=   1, J=  60

 MAXIMUM STEPSIZE WHICH MEETS STABILITY CRITERION OF THE ADVECTION TERM
 (FOR PURE FINITE-DIFFERENCE OPTION, MIXELM=0) 
 =  3.919    (WHEN MIN. R.F.=1)  AT K=   2, I=   1, J=  78


 TOTAL NUMBER OF POINT SOURCES/SINKS PRESENT IN THE FLOW MODEL =    62

 MAXIMUM STEPSIZE WHICH MEETS STABILITY CRITERION OF THE SINK & SOURCE TERM
 =  91.28    (WHEN MIN. R.F.=1)  AT K=   2, I=   1, J= 120

 MAXIMUM STEPSIZE WHICH MEETS STABILITY CRITERION OF THE DISPERSION TERM
 =  20.29    (WHEN MIN. R.F.=1)  AT K=   1, I=   1, J=  31
     1 CALLS TO GCG PACKAGE FOR TRANSPORT TIME STEP   2 IN FLOW TIME STEP 408 STRESS PERIOD   1
     6 TOTAL ITERATIONS
 
 SOLVING FOR HEAD 
 FLOW MODEL IS TRANSIENT
 FLOW MODEL CONTAINS CONSTANT-HEAD CELLS


 MAXIMUM STEPSIZE DURING WHICH ANY PARTICLE CANNOT MOVE MORE THAN ONE CELL
 =  5.609    (WHEN MIN. R.F.=1)  AT K=   4, I=   1, J=  60

 MAXIMUM STEPSIZE WHICH MEETS STABILITY CRITERION OF THE ADVECTION TERM
 (FOR PURE FINITE-DIFFERENCE OPTION, MIXELM=0) 
 =  4.269    (WHEN MIN. R.F.=1)  AT K=   2, I=   1, J=  77


 TOTAL NUMBER OF POINT SOURCES/SINKS PRESENT IN THE FLOW MODEL =    62

 MAXIMUM STEPSIZE WHICH MEETS STABILITY CRITERION OF THE SINK & SOURCE TERM
 =  91.77    (WHEN MIN. R.F.=1)  AT K=   2, I=   1, J= 120

 MAXIMUM STEPSIZE WHICH MEETS STABILITY CRITERION OF THE DISPERSION TERM
 =  20.29    (WHEN MIN. R.F.=1)  AT K=   1, I=   1, J=  31
     1 CALLS TO GCG PACKAGE FOR TRANSPORT TIME STEP   3 IN FLOW TIME STEP 408 STRESS PERIOD   1
     6 TOTAL ITERATIONS
 
 SOLVING FOR HEAD 
 FLOW MODEL IS TRANSIENT
 FLOW MODEL CONTAINS CONSTANT-HEAD CELLS


 MAXIMUM STEPSIZE DURING WHICH ANY PARTICLE CANNOT MOVE MORE THAN ONE CELL
 =  5.608    (WHEN MIN. R.F.=1)  AT K=   4, I=   1, J=  60

 MAXIMUM STEPSIZE WHICH MEETS STABILITY CRITERION OF THE ADVECTION TERM
 (FOR PURE FINITE-DIFFERENCE OPTION, MIXELM=0) 
 =  3.973    (WHEN MIN. R.F.=1)  AT K=   2, I=   1, J=  77


 TOTAL NUMBER OF POINT SOURCES/SINKS PRESENT IN THE FLOW MODEL =    62

 MAXIMUM STEPSIZE WHICH MEETS STABILITY CRITERION OF THE SINK & SOURCE TERM
 =  92.47    (WHEN MIN. R.F.=1)  AT K=   2, I=   1, J= 120

 MAXIMUM STEPSIZE WHICH MEETS STABILITY CRITERION OF THE DISPERSION TERM
 =  20.29    (WHEN MIN. R.F.=1)  AT K=   1, I=   1, J=  31
     1 CALLS TO GCG PACKAGE FOR TRANSPORT TIME STEP   4 IN FLOW TIME STEP 408 STRESS PERIOD   1
     5 TOTAL ITERATIONS
  MAXIMUM CONCENTRATION CHANGES FOR EACH ITERATION:
  MAX. CHANGE LAYER,ROW,COL MAX. CHANGE LAYER,ROW,COL MAX. CHANGE LAYER,ROW,COL MAX. CHANGE LAYER,ROW,COL MAX. CHANGE LAYER,ROW,COL
 ------------------------------------------------------------------------------------------------------------------------------------
   0.1606E-01 (  2,  1, 31)  0.5003E-03 (  2,  1, 77)  0.1322E-04 (  3,  1, 77)  0.3166E-06 (  3,  1, 78)  0.1247E-07 (  3,  1, 33)


                                          ================================================
                                                         FROM TIME =   4080.0     TO    4090.0    

 
 SOLVING FOR HEAD 
 FLOW MODEL IS TRANSIENT
 FLOW MODEL CONTAINS CONSTANT-HEAD CELLS


 MAXIMUM STEPSIZE DURING WHICH ANY PARTICLE CANNOT MOVE MORE THAN ONE CELL
 =  5.611    (WHEN MIN. R.F.=1)  AT K=   4, I=   1, J=  60

 MAXIMUM STEPSIZE WHICH MEETS STABILITY CRITERION OF THE ADVECTION TERM
 (FOR PURE FINITE-DIFFERENCE OPTION, MIXELM=0) 
 =  3.901    (WHEN MIN. R.F.=1)  AT K=   2, I=   1, J=  77


 TOTAL NUMBER OF POINT SOURCES/SINKS PRESENT IN THE FLOW MODEL =    62

 MAXIMUM STEPSIZE WHICH MEETS STABILITY CRITERION OF THE SINK & SOURCE TERM
 =  94.62    (WHEN MIN. R.F.=1)  AT K=   2, I=   1, J= 120

 MAXIMUM STEPSIZE WHICH MEETS STABILITY CRITERION OF THE DISPERSION TERM
 =  20.29    (WHEN MIN. R.F.=1)  AT K=   1, I=   1, J=  31


     1 CALLS TO GCG PACKAGE FOR TRANSPORT TIME STEP   1 IN FLOW TIME STEP 409 STRESS PERIOD   1
     6 TOTAL ITERATIONS

 NO OUTPUT CONTROL FOR STRESS PERIOD    1   TIME STEP 409
 
 SOLVING FOR HEAD 
 FLOW MODEL IS TRANSIENT
 FLOW MODEL CONTAINS CONSTANT-HEAD CELLS


 MAXIMUM STEPSIZE DURING WHICH ANY PARTICLE CANNOT MOVE MORE THAN ONE CELL
 =  5.610    (WHEN MIN. R.F.=1)  AT K=   4, I=   1, J=  60

 MAXIMUM STEPSIZE WHICH MEETS STABILITY CRITERION OF THE ADVECTION TERM
 (FOR PURE FINITE-DIFFERENCE OPTION, MIXELM=0) 
 =  3.847    (WHEN MIN. R.F.=1)  AT K=   2, I=   1, J=  77


 TOTAL NUMBER OF POINT SOURCES/SINKS PRESENT IN THE FLOW MODEL =    62

 MAXIMUM STEPSIZE WHICH MEETS STABILITY CRITERION OF THE SINK & SOURCE TERM
 =  94.89    (WHEN MIN. R.F.=1)  AT K=   2, I=   1, J= 120

 MAXIMUM STEPSIZE WHICH MEETS STABILITY CRITERION OF THE DISPERSION TERM
 =  20.29    (WHEN MIN. R.F.=1)  AT K=   1, I=   1, J=  31
     1 CALLS TO GCG PACKAGE FOR TRANSPORT TIME STEP   2 IN FLOW TIME STEP 409 STRESS PERIOD   1
     6 TOTAL ITERATIONS
 
 SOLVING FOR HEAD 
 FLOW MODEL IS TRANSIENT
 FLOW MODEL CONTAINS CONSTANT-HEAD CELLS


 MAXIMUM STEPSIZE DURING WHICH ANY PARTICLE CANNOT MOVE MORE THAN ONE CELL
 =  5.609    (WHEN MIN. R.F.=1)  AT K=   4, I=   1, J=  60

 MAXIMUM STEPSIZE WHICH MEETS STABILITY CRITERION OF THE ADVECTION TERM
 (FOR PURE FINITE-DIFFERENCE OPTION, MIXELM=0) 
 =  3.901    (WHEN MIN. R.F.=1)  AT K=   2, I=   1, J=  77


 TOTAL NUMBER OF POINT SOURCES/SINKS PRESENT IN THE FLOW MODEL =    62

 MAXIMUM STEPSIZE WHICH MEETS STABILITY CRITERION OF THE SINK & SOURCE TERM
 =  96.06    (WHEN MIN. R.F.=1)  AT K=   2, I=   1, J= 120

 MAXIMUM STEPSIZE WHICH MEETS STABILITY CRITERION OF THE DISPERSION TERM
 =  20.29    (WHEN MIN. R.F.=1)  AT K=   1, I=   1, J=  31
     1 CALLS TO GCG PACKAGE FOR TRANSPORT TIME STEP   3 IN FLOW TIME STEP 409 STRESS PERIOD   1
     6 TOTAL ITERATIONS
 
 SOLVING FOR HEAD 
 FLOW MODEL IS TRANSIENT
 FLOW MODEL CONTAINS CONSTANT-HEAD CELLS


 MAXIMUM STEPSIZE DURING WHICH ANY PARTICLE CANNOT MOVE MORE THAN ONE CELL
 =  5.609    (WHEN MIN. R.F.=1)  AT K=   4, I=   1, J=  60

 MAXIMUM STEPSIZE WHICH MEETS STABILITY CRITERION OF THE ADVECTION TERM
 (FOR PURE FINITE-DIFFERENCE OPTION, MIXELM=0) 
 =  4.085    (WHEN MIN. R.F.=1)  AT K=   2, I=   1, J=  77


 TOTAL NUMBER OF POINT SOURCES/SINKS PRESENT IN THE FLOW MODEL =    62

 MAXIMUM STEPSIZE WHICH MEETS STABILITY CRITERION OF THE SINK & SOURCE TERM
 =  96.43    (WHEN MIN. R.F.=1)  AT K=   2, I=   1, J= 120

 MAXIMUM STEPSIZE WHICH MEETS STABILITY CRITERION OF THE DISPERSION TERM
 =  20.29    (WHEN MIN. R.F.=1)  AT K=   1, I=   1, J=  31
     1 CALLS TO GCG PACKAGE FOR TRANSPORT TIME STEP   4 IN FLOW TIME STEP 409 STRESS PERIOD   1
     5 TOTAL ITERATIONS
  MAXIMUM CONCENTRATION CHANGES FOR EACH ITERATION:
  MAX. CHANGE LAYER,ROW,COL MAX. CHANGE LAYER,ROW,COL MAX. CHANGE LAYER,ROW,COL MAX. CHANGE LAYER,ROW,COL MAX. CHANGE LAYER,ROW,COL
 ------------------------------------------------------------------------------------------------------------------------------------
   0.1528E-01 (  2,  1, 78)  0.2456E-03 (  2,  1, 46)  0.7254E-05 (  2,  1, 79)  0.2200E-06 (  3,  1, 79)  0.4315E-08 (  4,  1, 46)


                                          ================================================
                                                         FROM TIME =   4090.0     TO    4100.0    

 
 SOLVING FOR HEAD 
 FLOW MODEL IS TRANSIENT
 FLOW MODEL CONTAINS CONSTANT-HEAD CELLS


 MAXIMUM STEPSIZE DURING WHICH ANY PARTICLE CANNOT MOVE MORE THAN ONE CELL
 =  5.613    (WHEN MIN. R.F.=1)  AT K=   4, I=   1, J=  60

 MAXIMUM STEPSIZE WHICH MEETS STABILITY CRITERION OF THE ADVECTION TERM
 (FOR PURE FINITE-DIFFERENCE OPTION, MIXELM=0) 
 =  4.230    (WHEN MIN. R.F.=1)  AT K=   2, I=   1, J=  77


 TOTAL NUMBER OF POINT SOURCES/SINKS PRESENT IN THE FLOW MODEL =    62

 MAXIMUM STEPSIZE WHICH MEETS STABILITY CRITERION OF THE SINK & SOURCE TERM
 =  97.25    (WHEN MIN. R.F.=1)  AT K=   2, I=   1, J= 120

 MAXIMUM STEPSIZE WHICH MEETS STABILITY CRITERION OF THE DISPERSION TERM
 =  20.29    (WHEN MIN. R.F.=1)  AT K=   1, I=   1, J=  31


     1 CALLS TO GCG PACKAGE FOR TRANSPORT TIME STEP   1 IN FLOW TIME STEP 410 STRESS PERIOD   1
     6 TOTAL ITERATIONS

 NO OUTPUT CONTROL FOR STRESS PERIOD    1   TIME STEP 410
 
 SOLVING FOR HEAD 
 FLOW MODEL IS TRANSIENT
 FLOW MODEL CONTAINS CONSTANT-HEAD CELLS


 MAXIMUM STEPSIZE DURING WHICH ANY PARTICLE CANNOT MOVE MORE THAN ONE CELL
 =  5.613    (WHEN MIN. R.F.=1)  AT K=   4, I=   1, J=  60

 MAXIMUM STEPSIZE WHICH MEETS STABILITY CRITERION OF THE ADVECTION TERM
 (FOR PURE FINITE-DIFFERENCE OPTION, MIXELM=0) 
 =  4.707    (WHEN MIN. R.F.=1)  AT K=   2, I=   1, J=  45


 TOTAL NUMBER OF POINT SOURCES/SINKS PRESENT IN THE FLOW MODEL =    62

 MAXIMUM STEPSIZE WHICH MEETS STABILITY CRITERION OF THE SINK & SOURCE TERM
 =  96.15    (WHEN MIN. R.F.=1)  AT K=   2, I=   1, J= 120

 MAXIMUM STEPSIZE WHICH MEETS STABILITY CRITERION OF THE DISPERSION TERM
 =  20.29    (WHEN MIN. R.F.=1)  AT K=   1, I=   1, J=  31
     1 CALLS TO GCG PACKAGE FOR TRANSPORT TIME STEP   2 IN FLOW TIME STEP 410 STRESS PERIOD   1
     6 TOTAL ITERATIONS
 
 SOLVING FOR HEAD 
 FLOW MODEL IS TRANSIENT
 FLOW MODEL CONTAINS CONSTANT-HEAD CELLS


 MAXIMUM STEPSIZE DURING WHICH ANY PARTICLE CANNOT MOVE MORE THAN ONE CELL
 =  5.612    (WHEN MIN. R.F.=1)  AT K=   4, I=   1, J=  60

 MAXIMUM STEPSIZE WHICH MEETS STABILITY CRITERION OF THE ADVECTION TERM
 (FOR PURE FINITE-DIFFERENCE OPTION, MIXELM=0) 
 =  4.430    (WHEN MIN. R.F.=1)  AT K=   2, I=   1, J=  45


 TOTAL NUMBER OF POINT SOURCES/SINKS PRESENT IN THE FLOW MODEL =    62

 MAXIMUM STEPSIZE WHICH MEETS STABILITY CRITERION OF THE SINK & SOURCE TERM
 =  97.73    (WHEN MIN. R.F.=1)  AT K=   2, I=   1, J= 120

 MAXIMUM STEPSIZE WHICH MEETS STABILITY CRITERION OF THE DISPERSION TERM
 =  20.29    (WHEN MIN. R.F.=1)  AT K=   1, I=   1, J=  31
     1 CALLS TO GCG PACKAGE FOR TRANSPORT TIME STEP   3 IN FLOW TIME STEP 410 STRESS PERIOD   1
     6 TOTAL ITERATIONS
 
 SOLVING FOR HEAD 
 FLOW MODEL IS TRANSIENT
 FLOW MODEL CONTAINS CONSTANT-HEAD CELLS


 MAXIMUM STEPSIZE DURING WHICH ANY PARTICLE CANNOT MOVE MORE THAN ONE CELL
 =  5.612    (WHEN MIN. R.F.=1)  AT K=   4, I=   1, J=  60

 MAXIMUM STEPSIZE WHICH MEETS STABILITY CRITERION OF THE ADVECTION TERM
 (FOR PURE FINITE-DIFFERENCE OPTION, MIXELM=0) 
 =  4.289    (WHEN MIN. R.F.=1)  AT K=   2, I=   1, J=  76


 TOTAL NUMBER OF POINT SOURCES/SINKS PRESENT IN THE FLOW MODEL =    62

 MAXIMUM STEPSIZE WHICH MEETS STABILITY CRITERION OF THE SINK & SOURCE TERM
 =  99.64    (WHEN MIN. R.F.=1)  AT K=   2, I=   1, J= 120

 MAXIMUM STEPSIZE WHICH MEETS STABILITY CRITERION OF THE DISPERSION TERM
 =  20.29    (WHEN MIN. R.F.=1)  AT K=   1, I=   1, J=  31
     1 CALLS TO GCG PACKAGE FOR TRANSPORT TIME STEP   4 IN FLOW TIME STEP 410 STRESS PERIOD   1
     3 TOTAL ITERATIONS
  MAXIMUM CONCENTRATION CHANGES FOR EACH ITERATION:
  MAX. CHANGE LAYER,ROW,COL MAX. CHANGE LAYER,ROW,COL MAX. CHANGE LAYER,ROW,COL MAX. CHANGE LAYER,ROW,COL MAX. CHANGE LAYER,ROW,COL
 ------------------------------------------------------------------------------------------------------------------------------------
   0.2381E-02 (  2,  1, 31)  0.9912E-05 (  2,  1, 76)  0.4956E-07 (  2,  1, 78)


                                          ================================================
                                                         FROM TIME =   4100.0     TO    4110.0    

 
 SOLVING FOR HEAD 
 FLOW MODEL IS TRANSIENT
 FLOW MODEL CONTAINS CONSTANT-HEAD CELLS


 MAXIMUM STEPSIZE DURING WHICH ANY PARTICLE CANNOT MOVE MORE THAN ONE CELL
 =  5.613    (WHEN MIN. R.F.=1)  AT K=   4, I=   1, J=  60

 MAXIMUM STEPSIZE WHICH MEETS STABILITY CRITERION OF THE ADVECTION TERM
 (FOR PURE FINITE-DIFFERENCE OPTION, MIXELM=0) 
 =  4.285    (WHEN MIN. R.F.=1)  AT K=   2, I=   1, J=  76


 TOTAL NUMBER OF POINT SOURCES/SINKS PRESENT IN THE FLOW MODEL =    62

 MAXIMUM STEPSIZE WHICH MEETS STABILITY CRITERION OF THE SINK & SOURCE TERM
 =  102.0    (WHEN MIN. R.F.=1)  AT K=   2, I=   1, J= 120

 MAXIMUM STEPSIZE WHICH MEETS STABILITY CRITERION OF THE DISPERSION TERM
 =  20.29    (WHEN MIN. R.F.=1)  AT K=   1, I=   1, J=  31


     1 CALLS TO GCG PACKAGE FOR TRANSPORT TIME STEP   1 IN FLOW TIME STEP 411 STRESS PERIOD   1
     6 TOTAL ITERATIONS

 NO OUTPUT CONTROL FOR STRESS PERIOD    1   TIME STEP 411
 
 SOLVING FOR HEAD 
 FLOW MODEL IS TRANSIENT
 FLOW MODEL CONTAINS CONSTANT-HEAD CELLS


 MAXIMUM STEPSIZE DURING WHICH ANY PARTICLE CANNOT MOVE MORE THAN ONE CELL
 =  5.616    (WHEN MIN. R.F.=1)  AT K=   4, I=   1, J=  60

 MAXIMUM STEPSIZE WHICH MEETS STABILITY CRITERION OF THE ADVECTION TERM
 (FOR PURE FINITE-DIFFERENCE OPTION, MIXELM=0) 
 =  4.289    (WHEN MIN. R.F.=1)  AT K=   2, I=   1, J=  76


 TOTAL NUMBER OF POINT SOURCES/SINKS PRESENT IN THE FLOW MODEL =    62

 MAXIMUM STEPSIZE WHICH MEETS STABILITY CRITERION OF THE SINK & SOURCE TERM
 =  101.2    (WHEN MIN. R.F.=1)  AT K=   2, I=   1, J= 120

 MAXIMUM STEPSIZE WHICH MEETS STABILITY CRITERION OF THE DISPERSION TERM
 =  20.29    (WHEN MIN. R.F.=1)  AT K=   1, I=   1, J=  31
     1 CALLS TO GCG PACKAGE FOR TRANSPORT TIME STEP   2 IN FLOW TIME STEP 411 STRESS PERIOD   1
     6 TOTAL ITERATIONS
 
 SOLVING FOR HEAD 
 FLOW MODEL IS TRANSIENT
 FLOW MODEL CONTAINS CONSTANT-HEAD CELLS


 MAXIMUM STEPSIZE DURING WHICH ANY PARTICLE CANNOT MOVE MORE THAN ONE CELL
 =  5.622    (WHEN MIN. R.F.=1)  AT K=   4, I=   1, J=  60

 MAXIMUM STEPSIZE WHICH MEETS STABILITY CRITERION OF THE ADVECTION TERM
 (FOR PURE FINITE-DIFFERENCE OPTION, MIXELM=0) 
 =  4.492    (WHEN MIN. R.F.=1)  AT K=   2, I=   1, J=  76


 TOTAL NUMBER OF POINT SOURCES/SINKS PRESENT IN THE FLOW MODEL =    62

 MAXIMUM STEPSIZE WHICH MEETS STABILITY CRITERION OF THE SINK & SOURCE TERM
 =  100.5    (WHEN MIN. R.F.=1)  AT K=   2, I=   1, J= 120

 MAXIMUM STEPSIZE WHICH MEETS STABILITY CRITERION OF THE DISPERSION TERM
 =  20.29    (WHEN MIN. R.F.=1)  AT K=   1, I=   1, J=  31
     1 CALLS TO GCG PACKAGE FOR TRANSPORT TIME STEP   3 IN FLOW TIME STEP 411 STRESS PERIOD   1
     6 TOTAL ITERATIONS
 
 SOLVING FOR HEAD 
 FLOW MODEL IS TRANSIENT
 FLOW MODEL CONTAINS CONSTANT-HEAD CELLS


 MAXIMUM STEPSIZE DURING WHICH ANY PARTICLE CANNOT MOVE MORE THAN ONE CELL
 =  5.629    (WHEN MIN. R.F.=1)  AT K=   4, I=   1, J=  60

 MAXIMUM STEPSIZE WHICH MEETS STABILITY CRITERION OF THE ADVECTION TERM
 (FOR PURE FINITE-DIFFERENCE OPTION, MIXELM=0) 
 =  4.672    (WHEN MIN. R.F.=1)  AT K=   2, I=   1, J=  82


 TOTAL NUMBER OF POINT SOURCES/SINKS PRESENT IN THE FLOW MODEL =    62

 MAXIMUM STEPSIZE WHICH MEETS STABILITY CRITERION OF THE SINK & SOURCE TERM
 =  102.2    (WHEN MIN. R.F.=1)  AT K=   2, I=   1, J= 120

 MAXIMUM STEPSIZE WHICH MEETS STABILITY CRITERION OF THE DISPERSION TERM
 =  20.29    (WHEN MIN. R.F.=1)  AT K=   1, I=   1, J=  31
     1 CALLS TO GCG PACKAGE FOR TRANSPORT TIME STEP   4 IN FLOW TIME STEP 411 STRESS PERIOD   1
     4 TOTAL ITERATIONS
  MAXIMUM CONCENTRATION CHANGES FOR EACH ITERATION:
  MAX. CHANGE LAYER,ROW,COL MAX. CHANGE LAYER,ROW,COL MAX. CHANGE LAYER,ROW,COL MAX. CHANGE LAYER,ROW,COL MAX. CHANGE LAYER,ROW,COL
 ------------------------------------------------------------------------------------------------------------------------------------
   0.3911E-02 (  2,  1, 77)  0.1758E-04 (  3,  1, 42)  0.1387E-06 (  2,  1, 30)  0.1308E-08 (  3,  1, 78)


                                          ================================================
                                                         FROM TIME =   4110.0     TO    4120.0    

 
 SOLVING FOR HEAD 
 FLOW MODEL IS TRANSIENT
 FLOW MODEL CONTAINS CONSTANT-HEAD CELLS


 MAXIMUM STEPSIZE DURING WHICH ANY PARTICLE CANNOT MOVE MORE THAN ONE CELL
 =  5.631    (WHEN MIN. R.F.=1)  AT K=   4, I=   1, J=  60

 MAXIMUM STEPSIZE WHICH MEETS STABILITY CRITERION OF THE ADVECTION TERM
 (FOR PURE FINITE-DIFFERENCE OPTION, MIXELM=0) 
 =  4.641    (WHEN MIN. R.F.=1)  AT K=   2, I=   1, J=  82


 TOTAL NUMBER OF POINT SOURCES/SINKS PRESENT IN THE FLOW MODEL =    62

 MAXIMUM STEPSIZE WHICH MEETS STABILITY CRITERION OF THE SINK & SOURCE TERM
 =  104.2    (WHEN MIN. R.F.=1)  AT K=   2, I=   1, J= 120

 MAXIMUM STEPSIZE WHICH MEETS STABILITY CRITERION OF THE DISPERSION TERM
 =  20.29    (WHEN MIN. R.F.=1)  AT K=   1, I=   1, J=  31


     1 CALLS TO GCG PACKAGE FOR TRANSPORT TIME STEP   1 IN FLOW TIME STEP 412 STRESS PERIOD   1
     6 TOTAL ITERATIONS

 NO OUTPUT CONTROL FOR STRESS PERIOD    1   TIME STEP 412
 
 SOLVING FOR HEAD 
 FLOW MODEL IS TRANSIENT
 FLOW MODEL CONTAINS CONSTANT-HEAD CELLS


 MAXIMUM STEPSIZE DURING WHICH ANY PARTICLE CANNOT MOVE MORE THAN ONE CELL
 =  5.636    (WHEN MIN. R.F.=1)  AT K=   4, I=   1, J=  60

 MAXIMUM STEPSIZE WHICH MEETS STABILITY CRITERION OF THE ADVECTION TERM
 (FOR PURE FINITE-DIFFERENCE OPTION, MIXELM=0) 
 =  4.440    (WHEN MIN. R.F.=1)  AT K=   2, I=   1, J=  75


 TOTAL NUMBER OF POINT SOURCES/SINKS PRESENT IN THE FLOW MODEL =    62

 MAXIMUM STEPSIZE WHICH MEETS STABILITY CRITERION OF THE SINK & SOURCE TERM
 =  103.2    (WHEN MIN. R.F.=1)  AT K=   2, I=   1, J= 120

 MAXIMUM STEPSIZE WHICH MEETS STABILITY CRITERION OF THE DISPERSION TERM
 =  20.29    (WHEN MIN. R.F.=1)  AT K=   1, I=   1, J=  31
     1 CALLS TO GCG PACKAGE FOR TRANSPORT TIME STEP   2 IN FLOW TIME STEP 412 STRESS PERIOD   1
     6 TOTAL ITERATIONS
 
 SOLVING FOR HEAD 
 FLOW MODEL IS TRANSIENT
 FLOW MODEL CONTAINS CONSTANT-HEAD CELLS


 MAXIMUM STEPSIZE DURING WHICH ANY PARTICLE CANNOT MOVE MORE THAN ONE CELL
 =  5.639    (WHEN MIN. R.F.=1)  AT K=   4, I=   1, J=  60

 MAXIMUM STEPSIZE WHICH MEETS STABILITY CRITERION OF THE ADVECTION TERM
 (FOR PURE FINITE-DIFFERENCE OPTION, MIXELM=0) 
 =  4.248    (WHEN MIN. R.F.=1)  AT K=   2, I=   1, J=  75


 TOTAL NUMBER OF POINT SOURCES/SINKS PRESENT IN THE FLOW MODEL =    62

 MAXIMUM STEPSIZE WHICH MEETS STABILITY CRITERION OF THE SINK & SOURCE TERM
 =  104.3    (WHEN MIN. R.F.=1)  AT K=   2, I=   1, J= 120

 MAXIMUM STEPSIZE WHICH MEETS STABILITY CRITERION OF THE DISPERSION TERM
 =  20.29    (WHEN MIN. R.F.=1)  AT K=   1, I=   1, J=  31
     1 CALLS TO GCG PACKAGE FOR TRANSPORT TIME STEP   3 IN FLOW TIME STEP 412 STRESS PERIOD   1
     6 TOTAL ITERATIONS
  MAXIMUM CONCENTRATION CHANGES FOR EACH ITERATION:
  MAX. CHANGE LAYER,ROW,COL MAX. CHANGE LAYER,ROW,COL MAX. CHANGE LAYER,ROW,COL MAX. CHANGE LAYER,ROW,COL MAX. CHANGE LAYER,ROW,COL
 ------------------------------------------------------------------------------------------------------------------------------------
   0.3460E-01 (  2,  1, 83)  0.1458E-02 (  3,  1, 78)  0.8597E-04 (  2,  1, 77)  0.6152E-05 (  3,  1, 77)  0.3375E-06 (  4,  1, 74)
   0.2199E-07 (  5,  1, 74)


                                          ================================================
                                                         FROM TIME =   4120.0     TO    4130.0    

 
 SOLVING FOR HEAD 
 FLOW MODEL IS TRANSIENT
 FLOW MODEL CONTAINS CONSTANT-HEAD CELLS


 MAXIMUM STEPSIZE DURING WHICH ANY PARTICLE CANNOT MOVE MORE THAN ONE CELL
 =  5.549    (WHEN MIN. R.F.=1)  AT K=   4, I=   1, J=  74

 MAXIMUM STEPSIZE WHICH MEETS STABILITY CRITERION OF THE ADVECTION TERM
 (FOR PURE FINITE-DIFFERENCE OPTION, MIXELM=0) 
 =  4.197    (WHEN MIN. R.F.=1)  AT K=   2, I=   1, J=  81


 TOTAL NUMBER OF POINT SOURCES/SINKS PRESENT IN THE FLOW MODEL =    62

 MAXIMUM STEPSIZE WHICH MEETS STABILITY CRITERION OF THE SINK & SOURCE TERM
 =  105.2    (WHEN MIN. R.F.=1)  AT K=   2, I=   1, J= 120

 MAXIMUM STEPSIZE WHICH MEETS STABILITY CRITERION OF THE DISPERSION TERM
 =  20.29    (WHEN MIN. R.F.=1)  AT K=   1, I=   1, J=  31


     1 CALLS TO GCG PACKAGE FOR TRANSPORT TIME STEP   1 IN FLOW TIME STEP 413 STRESS PERIOD   1
     6 TOTAL ITERATIONS

 NO OUTPUT CONTROL FOR STRESS PERIOD    1   TIME STEP 413
 
 SOLVING FOR HEAD 
 FLOW MODEL IS TRANSIENT
 FLOW MODEL CONTAINS CONSTANT-HEAD CELLS


 MAXIMUM STEPSIZE DURING WHICH ANY PARTICLE CANNOT MOVE MORE THAN ONE CELL
 =  5.330    (WHEN MIN. R.F.=1)  AT K=   4, I=   1, J=  74

 MAXIMUM STEPSIZE WHICH MEETS STABILITY CRITERION OF THE ADVECTION TERM
 (FOR PURE FINITE-DIFFERENCE OPTION, MIXELM=0) 
 =  3.927    (WHEN MIN. R.F.=1)  AT K=   2, I=   1, J=  81


 TOTAL NUMBER OF POINT SOURCES/SINKS PRESENT IN THE FLOW MODEL =    62

 MAXIMUM STEPSIZE WHICH MEETS STABILITY CRITERION OF THE SINK & SOURCE TERM
 =  107.5    (WHEN MIN. R.F.=1)  AT K=   2, I=   1, J= 120

 MAXIMUM STEPSIZE WHICH MEETS STABILITY CRITERION OF THE DISPERSION TERM
 =  20.29    (WHEN MIN. R.F.=1)  AT K=   1, I=   1, J=  31
     1 CALLS TO GCG PACKAGE FOR TRANSPORT TIME STEP   2 IN FLOW TIME STEP 413 STRESS PERIOD   1
     6 TOTAL ITERATIONS
 
 SOLVING FOR HEAD 
 FLOW MODEL IS TRANSIENT
 FLOW MODEL CONTAINS CONSTANT-HEAD CELLS


 MAXIMUM STEPSIZE DURING WHICH ANY PARTICLE CANNOT MOVE MORE THAN ONE CELL
 =  5.173    (WHEN MIN. R.F.=1)  AT K=   4, I=   1, J=  74

 MAXIMUM STEPSIZE WHICH MEETS STABILITY CRITERION OF THE ADVECTION TERM
 (FOR PURE FINITE-DIFFERENCE OPTION, MIXELM=0) 
 =  3.872    (WHEN MIN. R.F.=1)  AT K=   2, I=   1, J=  81


 TOTAL NUMBER OF POINT SOURCES/SINKS PRESENT IN THE FLOW MODEL =    62

 MAXIMUM STEPSIZE WHICH MEETS STABILITY CRITERION OF THE SINK & SOURCE TERM
 =  110.1    (WHEN MIN. R.F.=1)  AT K=   2, I=   1, J= 120

 MAXIMUM STEPSIZE WHICH MEETS STABILITY CRITERION OF THE DISPERSION TERM
 =  20.29    (WHEN MIN. R.F.=1)  AT K=   1, I=   1, J=  31
     1 CALLS TO GCG PACKAGE FOR TRANSPORT TIME STEP   3 IN FLOW TIME STEP 413 STRESS PERIOD   1
     6 TOTAL ITERATIONS
 
 SOLVING FOR HEAD 
 FLOW MODEL IS TRANSIENT
 FLOW MODEL CONTAINS CONSTANT-HEAD CELLS


 MAXIMUM STEPSIZE DURING WHICH ANY PARTICLE CANNOT MOVE MORE THAN ONE CELL
 =  5.069    (WHEN MIN. R.F.=1)  AT K=   4, I=   1, J=  74

 MAXIMUM STEPSIZE WHICH MEETS STABILITY CRITERION OF THE ADVECTION TERM
 (FOR PURE FINITE-DIFFERENCE OPTION, MIXELM=0) 
 =  4.084    (WHEN MIN. R.F.=1)  AT K=   2, I=   1, J=  81


 TOTAL NUMBER OF POINT SOURCES/SINKS PRESENT IN THE FLOW MODEL =    62

 MAXIMUM STEPSIZE WHICH MEETS STABILITY CRITERION OF THE SINK & SOURCE TERM
 =  112.1    (WHEN MIN. R.F.=1)  AT K=   2, I=   1, J= 120

 MAXIMUM STEPSIZE WHICH MEETS STABILITY CRITERION OF THE DISPERSION TERM
 =  20.29    (WHEN MIN. R.F.=1)  AT K=   1, I=   1, J=  31
     1 CALLS TO GCG PACKAGE FOR TRANSPORT TIME STEP   4 IN FLOW TIME STEP 413 STRESS PERIOD   1
     4 TOTAL ITERATIONS
  MAXIMUM CONCENTRATION CHANGES FOR EACH ITERATION:
  MAX. CHANGE LAYER,ROW,COL MAX. CHANGE LAYER,ROW,COL MAX. CHANGE LAYER,ROW,COL MAX. CHANGE LAYER,ROW,COL MAX. CHANGE LAYER,ROW,COL
 ------------------------------------------------------------------------------------------------------------------------------------
   0.9370E-02 (  2,  1, 82)  0.9047E-04 (  2,  1, 82)  0.1787E-05 (  3,  1, 80)  0.2596E-07 (  4,  1, 80)


                                          ================================================
                                                         FROM TIME =   4130.0     TO    4140.0    

 
 SOLVING FOR HEAD 
 FLOW MODEL IS TRANSIENT
 FLOW MODEL CONTAINS CONSTANT-HEAD CELLS


 MAXIMUM STEPSIZE DURING WHICH ANY PARTICLE CANNOT MOVE MORE THAN ONE CELL
 =  5.051    (WHEN MIN. R.F.=1)  AT K=   4, I=   1, J=  74

 MAXIMUM STEPSIZE WHICH MEETS STABILITY CRITERION OF THE ADVECTION TERM
 (FOR PURE FINITE-DIFFERENCE OPTION, MIXELM=0) 
 =  4.119    (WHEN MIN. R.F.=1)  AT K=   2, I=   1, J=  80


 TOTAL NUMBER OF POINT SOURCES/SINKS PRESENT IN THE FLOW MODEL =    62

 MAXIMUM STEPSIZE WHICH MEETS STABILITY CRITERION OF THE SINK & SOURCE TERM
 =  113.2    (WHEN MIN. R.F.=1)  AT K=   2, I=   1, J= 120

 MAXIMUM STEPSIZE WHICH MEETS STABILITY CRITERION OF THE DISPERSION TERM
 =  20.29    (WHEN MIN. R.F.=1)  AT K=   1, I=   1, J=  31


     1 CALLS TO GCG PACKAGE FOR TRANSPORT TIME STEP   1 IN FLOW TIME STEP 414 STRESS PERIOD   1
     6 TOTAL ITERATIONS

 NO OUTPUT CONTROL FOR STRESS PERIOD    1   TIME STEP 414
 
 SOLVING FOR HEAD 
 FLOW MODEL IS TRANSIENT
 FLOW MODEL CONTAINS CONSTANT-HEAD CELLS


 MAXIMUM STEPSIZE DURING WHICH ANY PARTICLE CANNOT MOVE MORE THAN ONE CELL
 =  5.001    (WHEN MIN. R.F.=1)  AT K=   4, I=   1, J=  74

 MAXIMUM STEPSIZE WHICH MEETS STABILITY CRITERION OF THE ADVECTION TERM
 (FOR PURE FINITE-DIFFERENCE OPTION, MIXELM=0) 
 =  3.741    (WHEN MIN. R.F.=1)  AT K=   2, I=   1, J=  80


 TOTAL NUMBER OF POINT SOURCES/SINKS PRESENT IN THE FLOW MODEL =    62

 MAXIMUM STEPSIZE WHICH MEETS STABILITY CRITERION OF THE SINK & SOURCE TERM
 =  112.1    (WHEN MIN. R.F.=1)  AT K=   2, I=   1, J= 120

 MAXIMUM STEPSIZE WHICH MEETS STABILITY CRITERION OF THE DISPERSION TERM
 =  20.29    (WHEN MIN. R.F.=1)  AT K=   1, I=   1, J=  31
     1 CALLS TO GCG PACKAGE FOR TRANSPORT TIME STEP   2 IN FLOW TIME STEP 414 STRESS PERIOD   1
     6 TOTAL ITERATIONS
 
 SOLVING FOR HEAD 
 FLOW MODEL IS TRANSIENT
 FLOW MODEL CONTAINS CONSTANT-HEAD CELLS


 MAXIMUM STEPSIZE DURING WHICH ANY PARTICLE CANNOT MOVE MORE THAN ONE CELL
 =  4.993    (WHEN MIN. R.F.=1)  AT K=   4, I=   1, J=  74

 MAXIMUM STEPSIZE WHICH MEETS STABILITY CRITERION OF THE ADVECTION TERM
 (FOR PURE FINITE-DIFFERENCE OPTION, MIXELM=0) 
 =  3.599    (WHEN MIN. R.F.=1)  AT K=   2, I=   1, J=  80


 TOTAL NUMBER OF POINT SOURCES/SINKS PRESENT IN THE FLOW MODEL =    62

 MAXIMUM STEPSIZE WHICH MEETS STABILITY CRITERION OF THE SINK & SOURCE TERM
 =  114.9    (WHEN MIN. R.F.=1)  AT K=   2, I=   1, J= 120

 MAXIMUM STEPSIZE WHICH MEETS STABILITY CRITERION OF THE DISPERSION TERM
 =  20.29    (WHEN MIN. R.F.=1)  AT K=   1, I=   1, J=  31
     1 CALLS TO GCG PACKAGE FOR TRANSPORT TIME STEP   3 IN FLOW TIME STEP 414 STRESS PERIOD   1
     6 TOTAL ITERATIONS
 
 SOLVING FOR HEAD 
 FLOW MODEL IS TRANSIENT
 FLOW MODEL CONTAINS CONSTANT-HEAD CELLS


 MAXIMUM STEPSIZE DURING WHICH ANY PARTICLE CANNOT MOVE MORE THAN ONE CELL
 =  5.028    (WHEN MIN. R.F.=1)  AT K=   4, I=   1, J=  74

 MAXIMUM STEPSIZE WHICH MEETS STABILITY CRITERION OF THE ADVECTION TERM
 (FOR PURE FINITE-DIFFERENCE OPTION, MIXELM=0) 
 =  3.631    (WHEN MIN. R.F.=1)  AT K=   2, I=   1, J=  80


 TOTAL NUMBER OF POINT SOURCES/SINKS PRESENT IN THE FLOW MODEL =    62

 MAXIMUM STEPSIZE WHICH MEETS STABILITY CRITERION OF THE SINK & SOURCE TERM
 =  119.7    (WHEN MIN. R.F.=1)  AT K=   2, I=   1, J= 120

 MAXIMUM STEPSIZE WHICH MEETS STABILITY CRITERION OF THE DISPERSION TERM
 =  20.29    (WHEN MIN. R.F.=1)  AT K=   1, I=   1, J=  31
     1 CALLS TO GCG PACKAGE FOR TRANSPORT TIME STEP   4 IN FLOW TIME STEP 414 STRESS PERIOD   1
     5 TOTAL ITERATIONS
  MAXIMUM CONCENTRATION CHANGES FOR EACH ITERATION:
  MAX. CHANGE LAYER,ROW,COL MAX. CHANGE LAYER,ROW,COL MAX. CHANGE LAYER,ROW,COL MAX. CHANGE LAYER,ROW,COL MAX. CHANGE LAYER,ROW,COL
 ------------------------------------------------------------------------------------------------------------------------------------
   0.1313E-01 (  2,  1, 81)  0.1899E-03 (  2,  1, 81)  0.6144E-05 (  3,  1, 79)  0.1290E-06 (  3,  1, 77)  0.2680E-08 (  4,  1, 77)


                                          ================================================
                                                         FROM TIME =   4140.0     TO    4150.0    

 
 SOLVING FOR HEAD 
 FLOW MODEL IS TRANSIENT
 FLOW MODEL CONTAINS CONSTANT-HEAD CELLS


 MAXIMUM STEPSIZE DURING WHICH ANY PARTICLE CANNOT MOVE MORE THAN ONE CELL
 =  5.056    (WHEN MIN. R.F.=1)  AT K=   4, I=   1, J=  74

 MAXIMUM STEPSIZE WHICH MEETS STABILITY CRITERION OF THE ADVECTION TERM
 (FOR PURE FINITE-DIFFERENCE OPTION, MIXELM=0) 
 =  3.719    (WHEN MIN. R.F.=1)  AT K=   2, I=   1, J=  80


 TOTAL NUMBER OF POINT SOURCES/SINKS PRESENT IN THE FLOW MODEL =    62

 MAXIMUM STEPSIZE WHICH MEETS STABILITY CRITERION OF THE SINK & SOURCE TERM
 =  126.7    (WHEN MIN. R.F.=1)  AT K=   2, I=   1, J= 120

 MAXIMUM STEPSIZE WHICH MEETS STABILITY CRITERION OF THE DISPERSION TERM
 =  20.29    (WHEN MIN. R.F.=1)  AT K=   1, I=   1, J=  31


     1 CALLS TO GCG PACKAGE FOR TRANSPORT TIME STEP   1 IN FLOW TIME STEP 415 STRESS PERIOD   1
     6 TOTAL ITERATIONS

 NO OUTPUT CONTROL FOR STRESS PERIOD    1   TIME STEP 415
 
 SOLVING FOR HEAD 
 FLOW MODEL IS TRANSIENT
 FLOW MODEL CONTAINS CONSTANT-HEAD CELLS


 MAXIMUM STEPSIZE DURING WHICH ANY PARTICLE CANNOT MOVE MORE THAN ONE CELL
 =  5.100    (WHEN MIN. R.F.=1)  AT K=   5, I=   1, J=  74

 MAXIMUM STEPSIZE WHICH MEETS STABILITY CRITERION OF THE ADVECTION TERM
 (FOR PURE FINITE-DIFFERENCE OPTION, MIXELM=0) 
 =  3.921    (WHEN MIN. R.F.=1)  AT K=   2, I=   1, J=  41


 TOTAL NUMBER OF POINT SOURCES/SINKS PRESENT IN THE FLOW MODEL =    62

 MAXIMUM STEPSIZE WHICH MEETS STABILITY CRITERION OF THE SINK & SOURCE TERM
 =  126.2    (WHEN MIN. R.F.=1)  AT K=   2, I=   1, J= 120

 MAXIMUM STEPSIZE WHICH MEETS STABILITY CRITERION OF THE DISPERSION TERM
 =  20.29    (WHEN MIN. R.F.=1)  AT K=   1, I=   1, J=  31
     1 CALLS TO GCG PACKAGE FOR TRANSPORT TIME STEP   2 IN FLOW TIME STEP 415 STRESS PERIOD   1
     6 TOTAL ITERATIONS
 
 SOLVING FOR HEAD 
 FLOW MODEL IS TRANSIENT
 FLOW MODEL CONTAINS CONSTANT-HEAD CELLS


 MAXIMUM STEPSIZE DURING WHICH ANY PARTICLE CANNOT MOVE MORE THAN ONE CELL
 =  5.162    (WHEN MIN. R.F.=1)  AT K=   5, I=   1, J=  74

 MAXIMUM STEPSIZE WHICH MEETS STABILITY CRITERION OF THE ADVECTION TERM
 (FOR PURE FINITE-DIFFERENCE OPTION, MIXELM=0) 
 =  3.655    (WHEN MIN. R.F.=1)  AT K=   2, I=   1, J=  79


 TOTAL NUMBER OF POINT SOURCES/SINKS PRESENT IN THE FLOW MODEL =    62

 MAXIMUM STEPSIZE WHICH MEETS STABILITY CRITERION OF THE SINK & SOURCE TERM
 =  129.6    (WHEN MIN. R.F.=1)  AT K=   2, I=   1, J= 120

 MAXIMUM STEPSIZE WHICH MEETS STABILITY CRITERION OF THE DISPERSION TERM
 =  20.29    (WHEN MIN. R.F.=1)  AT K=   1, I=   1, J=  31
     1 CALLS TO GCG PACKAGE FOR TRANSPORT TIME STEP   3 IN FLOW TIME STEP 415 STRESS PERIOD   1
     6 TOTAL ITERATIONS
 
 SOLVING FOR HEAD 
 FLOW MODEL IS TRANSIENT
 FLOW MODEL CONTAINS CONSTANT-HEAD CELLS


 MAXIMUM STEPSIZE DURING WHICH ANY PARTICLE CANNOT MOVE MORE THAN ONE CELL
 =  5.261    (WHEN MIN. R.F.=1)  AT K=   5, I=   1, J=  74

 MAXIMUM STEPSIZE WHICH MEETS STABILITY CRITERION OF THE ADVECTION TERM
 (FOR PURE FINITE-DIFFERENCE OPTION, MIXELM=0) 
 =  3.541    (WHEN MIN. R.F.=1)  AT K=   2, I=   1, J=  79


 TOTAL NUMBER OF POINT SOURCES/SINKS PRESENT IN THE FLOW MODEL =    62

 MAXIMUM STEPSIZE WHICH MEETS STABILITY CRITERION OF THE SINK & SOURCE TERM
 =  133.0    (WHEN MIN. R.F.=1)  AT K=   2, I=   1, J= 120

 MAXIMUM STEPSIZE WHICH MEETS STABILITY CRITERION OF THE DISPERSION TERM
 =  20.29    (WHEN MIN. R.F.=1)  AT K=   1, I=   1, J=  31
     1 CALLS TO GCG PACKAGE FOR TRANSPORT TIME STEP   4 IN FLOW TIME STEP 415 STRESS PERIOD   1
     5 TOTAL ITERATIONS
  MAXIMUM CONCENTRATION CHANGES FOR EACH ITERATION:
  MAX. CHANGE LAYER,ROW,COL MAX. CHANGE LAYER,ROW,COL MAX. CHANGE LAYER,ROW,COL MAX. CHANGE LAYER,ROW,COL MAX. CHANGE LAYER,ROW,COL
 ------------------------------------------------------------------------------------------------------------------------------------
   0.1772E-01 (  2,  1, 80)  0.4512E-03 (  2,  1, 80)  0.1449E-04 (  2,  1, 76)  0.7930E-06 (  3,  1, 76)  0.2168E-07 (  4,  1, 45)


                                          ================================================
                                                         FROM TIME =   4150.0     TO    4160.0    

 
 SOLVING FOR HEAD 
 FLOW MODEL IS TRANSIENT
 FLOW MODEL CONTAINS CONSTANT-HEAD CELLS


 MAXIMUM STEPSIZE DURING WHICH ANY PARTICLE CANNOT MOVE MORE THAN ONE CELL
 =  5.330    (WHEN MIN. R.F.=1)  AT K=   5, I=   1, J=  74

 MAXIMUM STEPSIZE WHICH MEETS STABILITY CRITERION OF THE ADVECTION TERM
 (FOR PURE FINITE-DIFFERENCE OPTION, MIXELM=0) 
 =  3.554    (WHEN MIN. R.F.=1)  AT K=   2, I=   1, J=  79


 TOTAL NUMBER OF POINT SOURCES/SINKS PRESENT IN THE FLOW MODEL =    62

 MAXIMUM STEPSIZE WHICH MEETS STABILITY CRITERION OF THE SINK & SOURCE TERM
 =  137.6    (WHEN MIN. R.F.=1)  AT K=   2, I=   1, J= 120

 MAXIMUM STEPSIZE WHICH MEETS STABILITY CRITERION OF THE DISPERSION TERM
 =  20.29    (WHEN MIN. R.F.=1)  AT K=   1, I=   1, J=  31


     1 CALLS TO GCG PACKAGE FOR TRANSPORT TIME STEP   1 IN FLOW TIME STEP 416 STRESS PERIOD   1
     6 TOTAL ITERATIONS

 NO OUTPUT CONTROL FOR STRESS PERIOD    1   TIME STEP 416
 
 SOLVING FOR HEAD 
 FLOW MODEL IS TRANSIENT
 FLOW MODEL CONTAINS CONSTANT-HEAD CELLS


 MAXIMUM STEPSIZE DURING WHICH ANY PARTICLE CANNOT MOVE MORE THAN ONE CELL
 =  5.420    (WHEN MIN. R.F.=1)  AT K=   6, I=   1, J=  74

 MAXIMUM STEPSIZE WHICH MEETS STABILITY CRITERION OF THE ADVECTION TERM
 (FOR PURE FINITE-DIFFERENCE OPTION, MIXELM=0) 
 =  3.652    (WHEN MIN. R.F.=1)  AT K=   2, I=   1, J=  79


 TOTAL NUMBER OF POINT SOURCES/SINKS PRESENT IN THE FLOW MODEL =    62

 MAXIMUM STEPSIZE WHICH MEETS STABILITY CRITERION OF THE SINK & SOURCE TERM
 =  139.7    (WHEN MIN. R.F.=1)  AT K=   2, I=   1, J= 120

 MAXIMUM STEPSIZE WHICH MEETS STABILITY CRITERION OF THE DISPERSION TERM
 =  20.29    (WHEN MIN. R.F.=1)  AT K=   1, I=   1, J=  31
     1 CALLS TO GCG PACKAGE FOR TRANSPORT TIME STEP   2 IN FLOW TIME STEP 416 STRESS PERIOD   1
     6 TOTAL ITERATIONS
 
 SOLVING FOR HEAD 
 FLOW MODEL IS TRANSIENT
 FLOW MODEL CONTAINS CONSTANT-HEAD CELLS


 MAXIMUM STEPSIZE DURING WHICH ANY PARTICLE CANNOT MOVE MORE THAN ONE CELL
 =  5.518    (WHEN MIN. R.F.=1)  AT K=   6, I=   1, J=  74

 MAXIMUM STEPSIZE WHICH MEETS STABILITY CRITERION OF THE ADVECTION TERM
 (FOR PURE FINITE-DIFFERENCE OPTION, MIXELM=0) 
 =  3.836    (WHEN MIN. R.F.=1)  AT K=   2, I=   1, J=  42


 TOTAL NUMBER OF POINT SOURCES/SINKS PRESENT IN THE FLOW MODEL =    62

 MAXIMUM STEPSIZE WHICH MEETS STABILITY CRITERION OF THE SINK & SOURCE TERM
 =  145.6    (WHEN MIN. R.F.=1)  AT K=   2, I=   1, J= 120

 MAXIMUM STEPSIZE WHICH MEETS STABILITY CRITERION OF THE DISPERSION TERM
 =  20.29    (WHEN MIN. R.F.=1)  AT K=   1, I=   1, J=  31
     1 CALLS TO GCG PACKAGE FOR TRANSPORT TIME STEP   3 IN FLOW TIME STEP 416 STRESS PERIOD   1
     6 TOTAL ITERATIONS
 
 SOLVING FOR HEAD 
 FLOW MODEL IS TRANSIENT
 FLOW MODEL CONTAINS CONSTANT-HEAD CELLS


 MAXIMUM STEPSIZE DURING WHICH ANY PARTICLE CANNOT MOVE MORE THAN ONE CELL
 =  5.634    (WHEN MIN. R.F.=1)  AT K=   4, I=   1, J=  60

 MAXIMUM STEPSIZE WHICH MEETS STABILITY CRITERION OF THE ADVECTION TERM
 (FOR PURE FINITE-DIFFERENCE OPTION, MIXELM=0) 
 =  3.880    (WHEN MIN. R.F.=1)  AT K=   2, I=   1, J=  78


 TOTAL NUMBER OF POINT SOURCES/SINKS PRESENT IN THE FLOW MODEL =    62

 MAXIMUM STEPSIZE WHICH MEETS STABILITY CRITERION OF THE SINK & SOURCE TERM
 =  150.9    (WHEN MIN. R.F.=1)  AT K=   2, I=   1, J= 120

 MAXIMUM STEPSIZE WHICH MEETS STABILITY CRITERION OF THE DISPERSION TERM
 =  20.29    (WHEN MIN. R.F.=1)  AT K=   1, I=   1, J=  31
     1 CALLS TO GCG PACKAGE FOR TRANSPORT TIME STEP   4 IN FLOW TIME STEP 416 STRESS PERIOD   1
     5 TOTAL ITERATIONS
  MAXIMUM CONCENTRATION CHANGES FOR EACH ITERATION:
  MAX. CHANGE LAYER,ROW,COL MAX. CHANGE LAYER,ROW,COL MAX. CHANGE LAYER,ROW,COL MAX. CHANGE LAYER,ROW,COL MAX. CHANGE LAYER,ROW,COL
 ------------------------------------------------------------------------------------------------------------------------------------
   0.2150E-01 (  2,  1, 80)  0.7708E-03 (  2,  1, 78)  0.2481E-04 (  3,  1, 78)  0.1042E-05 (  3,  1, 45)  0.3800E-07 (  3,  1, 77)


                                          ================================================
                                                         FROM TIME =   4160.0     TO    4170.0    

 
 SOLVING FOR HEAD 
 FLOW MODEL IS TRANSIENT
 FLOW MODEL CONTAINS CONSTANT-HEAD CELLS


 MAXIMUM STEPSIZE DURING WHICH ANY PARTICLE CANNOT MOVE MORE THAN ONE CELL
 =  5.632    (WHEN MIN. R.F.=1)  AT K=   4, I=   1, J=  60

 MAXIMUM STEPSIZE WHICH MEETS STABILITY CRITERION OF THE ADVECTION TERM
 (FOR PURE FINITE-DIFFERENCE OPTION, MIXELM=0) 
 =  3.741    (WHEN MIN. R.F.=1)  AT K=   2, I=   1, J=  78


 TOTAL NUMBER OF POINT SOURCES/SINKS PRESENT IN THE FLOW MODEL =    62

 MAXIMUM STEPSIZE WHICH MEETS STABILITY CRITERION OF THE SINK & SOURCE TERM
 =  156.0    (WHEN MIN. R.F.=1)  AT K=   2, I=   1, J= 120

 MAXIMUM STEPSIZE WHICH MEETS STABILITY CRITERION OF THE DISPERSION TERM
 =  20.29    (WHEN MIN. R.F.=1)  AT K=   1, I=   1, J=  31


     1 CALLS TO GCG PACKAGE FOR TRANSPORT TIME STEP   1 IN FLOW TIME STEP 417 STRESS PERIOD   1
     6 TOTAL ITERATIONS

 NO OUTPUT CONTROL FOR STRESS PERIOD    1   TIME STEP 417
 
 SOLVING FOR HEAD 
 FLOW MODEL IS TRANSIENT
 FLOW MODEL CONTAINS CONSTANT-HEAD CELLS


 MAXIMUM STEPSIZE DURING WHICH ANY PARTICLE CANNOT MOVE MORE THAN ONE CELL
 =  5.626    (WHEN MIN. R.F.=1)  AT K=   4, I=   1, J=  60

 MAXIMUM STEPSIZE WHICH MEETS STABILITY CRITERION OF THE ADVECTION TERM
 (FOR PURE FINITE-DIFFERENCE OPTION, MIXELM=0) 
 =  3.649    (WHEN MIN. R.F.=1)  AT K=   2, I=   1, J=  78


 TOTAL NUMBER OF POINT SOURCES/SINKS PRESENT IN THE FLOW MODEL =    62

 MAXIMUM STEPSIZE WHICH MEETS STABILITY CRITERION OF THE SINK & SOURCE TERM
 =  158.7    (WHEN MIN. R.F.=1)  AT K=   2, I=   1, J= 120

 MAXIMUM STEPSIZE WHICH MEETS STABILITY CRITERION OF THE DISPERSION TERM
 =  20.29    (WHEN MIN. R.F.=1)  AT K=   1, I=   1, J=  31
     1 CALLS TO GCG PACKAGE FOR TRANSPORT TIME STEP   2 IN FLOW TIME STEP 417 STRESS PERIOD   1
     6 TOTAL ITERATIONS
 
 SOLVING FOR HEAD 
 FLOW MODEL IS TRANSIENT
 FLOW MODEL CONTAINS CONSTANT-HEAD CELLS


 MAXIMUM STEPSIZE DURING WHICH ANY PARTICLE CANNOT MOVE MORE THAN ONE CELL
 =  5.620    (WHEN MIN. R.F.=1)  AT K=   4, I=   1, J=  60

 MAXIMUM STEPSIZE WHICH MEETS STABILITY CRITERION OF THE ADVECTION TERM
 (FOR PURE FINITE-DIFFERENCE OPTION, MIXELM=0) 
 =  3.682    (WHEN MIN. R.F.=1)  AT K=   2, I=   1, J=  78


 TOTAL NUMBER OF POINT SOURCES/SINKS PRESENT IN THE FLOW MODEL =    62

 MAXIMUM STEPSIZE WHICH MEETS STABILITY CRITERION OF THE SINK & SOURCE TERM
 =  167.5    (WHEN MIN. R.F.=1)  AT K=   2, I=   1, J= 120

 MAXIMUM STEPSIZE WHICH MEETS STABILITY CRITERION OF THE DISPERSION TERM
 =  20.29    (WHEN MIN. R.F.=1)  AT K=   1, I=   1, J=  31
     1 CALLS TO GCG PACKAGE FOR TRANSPORT TIME STEP   3 IN FLOW TIME STEP 417 STRESS PERIOD   1
     6 TOTAL ITERATIONS
 
 SOLVING FOR HEAD 
 FLOW MODEL IS TRANSIENT
 FLOW MODEL CONTAINS CONSTANT-HEAD CELLS


 MAXIMUM STEPSIZE DURING WHICH ANY PARTICLE CANNOT MOVE MORE THAN ONE CELL
 =  5.615    (WHEN MIN. R.F.=1)  AT K=   4, I=   1, J=  60

 MAXIMUM STEPSIZE WHICH MEETS STABILITY CRITERION OF THE ADVECTION TERM
 (FOR PURE FINITE-DIFFERENCE OPTION, MIXELM=0) 
 =  3.832    (WHEN MIN. R.F.=1)  AT K=   2, I=   1, J=  78


 TOTAL NUMBER OF POINT SOURCES/SINKS PRESENT IN THE FLOW MODEL =    62

 MAXIMUM STEPSIZE WHICH MEETS STABILITY CRITERION OF THE SINK & SOURCE TERM
 =  174.5    (WHEN MIN. R.F.=1)  AT K=   2, I=   1, J= 120

 MAXIMUM STEPSIZE WHICH MEETS STABILITY CRITERION OF THE DISPERSION TERM
 =  20.29    (WHEN MIN. R.F.=1)  AT K=   1, I=   1, J=  31
     1 CALLS TO GCG PACKAGE FOR TRANSPORT TIME STEP   4 IN FLOW TIME STEP 417 STRESS PERIOD   1
     5 TOTAL ITERATIONS
  MAXIMUM CONCENTRATION CHANGES FOR EACH ITERATION:
  MAX. CHANGE LAYER,ROW,COL MAX. CHANGE LAYER,ROW,COL MAX. CHANGE LAYER,ROW,COL MAX. CHANGE LAYER,ROW,COL MAX. CHANGE LAYER,ROW,COL
 ------------------------------------------------------------------------------------------------------------------------------------
   0.1984E-01 (  2,  1, 79)  0.4280E-03 (  2,  1, 77)  0.1386E-04 (  3,  1, 77)  0.5258E-06 (  3,  1, 80)  0.1504E-07 (  3,  1, 77)


                                          ================================================
                                                         FROM TIME =   4170.0     TO    4180.0    

 
 SOLVING FOR HEAD 
 FLOW MODEL IS TRANSIENT
 FLOW MODEL CONTAINS CONSTANT-HEAD CELLS


 MAXIMUM STEPSIZE DURING WHICH ANY PARTICLE CANNOT MOVE MORE THAN ONE CELL
 =  5.614    (WHEN MIN. R.F.=1)  AT K=   4, I=   1, J=  60

 MAXIMUM STEPSIZE WHICH MEETS STABILITY CRITERION OF THE ADVECTION TERM
 (FOR PURE FINITE-DIFFERENCE OPTION, MIXELM=0) 
 =  3.912    (WHEN MIN. R.F.=1)  AT K=   2, I=   1, J=  43


 TOTAL NUMBER OF POINT SOURCES/SINKS PRESENT IN THE FLOW MODEL =    62

 MAXIMUM STEPSIZE WHICH MEETS STABILITY CRITERION OF THE SINK & SOURCE TERM
 =  180.6    (WHEN MIN. R.F.=1)  AT K=   2, I=   1, J= 120

 MAXIMUM STEPSIZE WHICH MEETS STABILITY CRITERION OF THE DISPERSION TERM
 =  20.29    (WHEN MIN. R.F.=1)  AT K=   1, I=   1, J=  31


     1 CALLS TO GCG PACKAGE FOR TRANSPORT TIME STEP   1 IN FLOW TIME STEP 418 STRESS PERIOD   1
     6 TOTAL ITERATIONS

 NO OUTPUT CONTROL FOR STRESS PERIOD    1   TIME STEP 418
 
 SOLVING FOR HEAD 
 FLOW MODEL IS TRANSIENT
 FLOW MODEL CONTAINS CONSTANT-HEAD CELLS


 MAXIMUM STEPSIZE DURING WHICH ANY PARTICLE CANNOT MOVE MORE THAN ONE CELL
 =  5.557    (WHEN MIN. R.F.=1)  AT K=  27, I=   1, J=  67

 MAXIMUM STEPSIZE WHICH MEETS STABILITY CRITERION OF THE ADVECTION TERM
 (FOR PURE FINITE-DIFFERENCE OPTION, MIXELM=0) 
 =  4.173    (WHEN MIN. R.F.=1)  AT K=   2, I=   1, J=  43


 TOTAL NUMBER OF POINT SOURCES/SINKS PRESENT IN THE FLOW MODEL =    62

 MAXIMUM STEPSIZE WHICH MEETS STABILITY CRITERION OF THE SINK & SOURCE TERM
 =  184.4    (WHEN MIN. R.F.=1)  AT K=   2, I=   1, J= 120

 MAXIMUM STEPSIZE WHICH MEETS STABILITY CRITERION OF THE DISPERSION TERM
 =  20.29    (WHEN MIN. R.F.=1)  AT K=   1, I=   1, J=  31
     1 CALLS TO GCG PACKAGE FOR TRANSPORT TIME STEP   2 IN FLOW TIME STEP 418 STRESS PERIOD   1
     6 TOTAL ITERATIONS
 
 SOLVING FOR HEAD 
 FLOW MODEL IS TRANSIENT
 FLOW MODEL CONTAINS CONSTANT-HEAD CELLS


 MAXIMUM STEPSIZE DURING WHICH ANY PARTICLE CANNOT MOVE MORE THAN ONE CELL
 =  5.494    (WHEN MIN. R.F.=1)  AT K=  27, I=   1, J=  67

 MAXIMUM STEPSIZE WHICH MEETS STABILITY CRITERION OF THE ADVECTION TERM
 (FOR PURE FINITE-DIFFERENCE OPTION, MIXELM=0) 
 =  3.934    (WHEN MIN. R.F.=1)  AT K=   2, I=   1, J=  77


 TOTAL NUMBER OF POINT SOURCES/SINKS PRESENT IN THE FLOW MODEL =    62

 MAXIMUM STEPSIZE WHICH MEETS STABILITY CRITERION OF THE SINK & SOURCE TERM
 =  191.7    (WHEN MIN. R.F.=1)  AT K=   2, I=   1, J= 120

 MAXIMUM STEPSIZE WHICH MEETS STABILITY CRITERION OF THE DISPERSION TERM
 =  20.29    (WHEN MIN. R.F.=1)  AT K=   1, I=   1, J=  31
     1 CALLS TO GCG PACKAGE FOR TRANSPORT TIME STEP   3 IN FLOW TIME STEP 418 STRESS PERIOD   1
     6 TOTAL ITERATIONS
 
 SOLVING FOR HEAD 
 FLOW MODEL IS TRANSIENT
 FLOW MODEL CONTAINS CONSTANT-HEAD CELLS


 MAXIMUM STEPSIZE DURING WHICH ANY PARTICLE CANNOT MOVE MORE THAN ONE CELL
 =  5.435    (WHEN MIN. R.F.=1)  AT K=  27, I=   1, J=  67

 MAXIMUM STEPSIZE WHICH MEETS STABILITY CRITERION OF THE ADVECTION TERM
 (FOR PURE FINITE-DIFFERENCE OPTION, MIXELM=0) 
 =  3.840    (WHEN MIN. R.F.=1)  AT K=   2, I=   1, J=  77


 TOTAL NUMBER OF POINT SOURCES/SINKS PRESENT IN THE FLOW MODEL =    62

 MAXIMUM STEPSIZE WHICH MEETS STABILITY CRITERION OF THE SINK & SOURCE TERM
 =  201.5    (WHEN MIN. R.F.=1)  AT K=   2, I=   1, J= 120

 MAXIMUM STEPSIZE WHICH MEETS STABILITY CRITERION OF THE DISPERSION TERM
 =  20.29    (WHEN MIN. R.F.=1)  AT K=   1, I=   1, J=  31
     1 CALLS TO GCG PACKAGE FOR TRANSPORT TIME STEP   4 IN FLOW TIME STEP 418 STRESS PERIOD   1
     5 TOTAL ITERATIONS
  MAXIMUM CONCENTRATION CHANGES FOR EACH ITERATION:
  MAX. CHANGE LAYER,ROW,COL MAX. CHANGE LAYER,ROW,COL MAX. CHANGE LAYER,ROW,COL MAX. CHANGE LAYER,ROW,COL MAX. CHANGE LAYER,ROW,COL
 ------------------------------------------------------------------------------------------------------------------------------------
   0.1126E-01 (  2,  1, 31)  0.2144E-03 (  2,  1, 77)  0.4319E-05 (  3,  1, 46)  0.1027E-06 (  3,  1, 79)  0.2466E-08 (  4,  1, 78)


                                          ================================================
                                                         FROM TIME =   4180.0     TO    4190.0    

 
 SOLVING FOR HEAD 
 FLOW MODEL IS TRANSIENT
 FLOW MODEL CONTAINS CONSTANT-HEAD CELLS


 MAXIMUM STEPSIZE DURING WHICH ANY PARTICLE CANNOT MOVE MORE THAN ONE CELL
 =  5.421    (WHEN MIN. R.F.=1)  AT K=  27, I=   1, J=  67

 MAXIMUM STEPSIZE WHICH MEETS STABILITY CRITERION OF THE ADVECTION TERM
 (FOR PURE FINITE-DIFFERENCE OPTION, MIXELM=0) 
 =  3.847    (WHEN MIN. R.F.=1)  AT K=   2, I=   1, J=  77


 TOTAL NUMBER OF POINT SOURCES/SINKS PRESENT IN THE FLOW MODEL =    62

 MAXIMUM STEPSIZE WHICH MEETS STABILITY CRITERION OF THE SINK & SOURCE TERM
 =  211.9    (WHEN MIN. R.F.=1)  AT K=   2, I=   1, J= 120

 MAXIMUM STEPSIZE WHICH MEETS STABILITY CRITERION OF THE DISPERSION TERM
 =  20.29    (WHEN MIN. R.F.=1)  AT K=   1, I=   1, J=  31


     1 CALLS TO GCG PACKAGE FOR TRANSPORT TIME STEP   1 IN FLOW TIME STEP 419 STRESS PERIOD   1
     6 TOTAL ITERATIONS

 NO OUTPUT CONTROL FOR STRESS PERIOD    1   TIME STEP 419
 
 SOLVING FOR HEAD 
 FLOW MODEL IS TRANSIENT
 FLOW MODEL CONTAINS CONSTANT-HEAD CELLS


 MAXIMUM STEPSIZE DURING WHICH ANY PARTICLE CANNOT MOVE MORE THAN ONE CELL
 =  5.384    (WHEN MIN. R.F.=1)  AT K=  27, I=   1, J=  67

 MAXIMUM STEPSIZE WHICH MEETS STABILITY CRITERION OF THE ADVECTION TERM
 (FOR PURE FINITE-DIFFERENCE OPTION, MIXELM=0) 
 =  3.920    (WHEN MIN. R.F.=1)  AT K=   2, I=   1, J=  77


 TOTAL NUMBER OF POINT SOURCES/SINKS PRESENT IN THE FLOW MODEL =    62

 MAXIMUM STEPSIZE WHICH MEETS STABILITY CRITERION OF THE SINK & SOURCE TERM
 =  211.8    (WHEN MIN. R.F.=1)  AT K=   2, I=   1, J= 120

 MAXIMUM STEPSIZE WHICH MEETS STABILITY CRITERION OF THE DISPERSION TERM
 =  20.29    (WHEN MIN. R.F.=1)  AT K=   1, I=   1, J=  31
     1 CALLS TO GCG PACKAGE FOR TRANSPORT TIME STEP   2 IN FLOW TIME STEP 419 STRESS PERIOD   1
     6 TOTAL ITERATIONS
 
 SOLVING FOR HEAD 
 FLOW MODEL IS TRANSIENT
 FLOW MODEL CONTAINS CONSTANT-HEAD CELLS


 MAXIMUM STEPSIZE DURING WHICH ANY PARTICLE CANNOT MOVE MORE THAN ONE CELL
 =  5.359    (WHEN MIN. R.F.=1)  AT K=  27, I=   1, J=  67

 MAXIMUM STEPSIZE WHICH MEETS STABILITY CRITERION OF THE ADVECTION TERM
 (FOR PURE FINITE-DIFFERENCE OPTION, MIXELM=0) 
 =  4.082    (WHEN MIN. R.F.=1)  AT K=   2, I=   1, J=  44


 TOTAL NUMBER OF POINT SOURCES/SINKS PRESENT IN THE FLOW MODEL =    62

 MAXIMUM STEPSIZE WHICH MEETS STABILITY CRITERION OF THE SINK & SOURCE TERM
 =  214.6    (WHEN MIN. R.F.=1)  AT K=   2, I=   1, J= 120

 MAXIMUM STEPSIZE WHICH MEETS STABILITY CRITERION OF THE DISPERSION TERM
 =  20.29    (WHEN MIN. R.F.=1)  AT K=   1, I=   1, J=  31
     1 CALLS TO GCG PACKAGE FOR TRANSPORT TIME STEP   3 IN FLOW TIME STEP 419 STRESS PERIOD   1
     6 TOTAL ITERATIONS
 
 SOLVING FOR HEAD 
 FLOW MODEL IS TRANSIENT
 FLOW MODEL CONTAINS CONSTANT-HEAD CELLS


 MAXIMUM STEPSIZE DURING WHICH ANY PARTICLE CANNOT MOVE MORE THAN ONE CELL
 =  5.345    (WHEN MIN. R.F.=1)  AT K=  27, I=   1, J=  67

 MAXIMUM STEPSIZE WHICH MEETS STABILITY CRITERION OF THE ADVECTION TERM
 (FOR PURE FINITE-DIFFERENCE OPTION, MIXELM=0) 
 =  4.349    (WHEN MIN. R.F.=1)  AT K=   2, I=   1, J=  44


 TOTAL NUMBER OF POINT SOURCES/SINKS PRESENT IN THE FLOW MODEL =    62

 MAXIMUM STEPSIZE WHICH MEETS STABILITY CRITERION OF THE SINK & SOURCE TERM
 =  220.4    (WHEN MIN. R.F.=1)  AT K=   2, I=   1, J= 120

 MAXIMUM STEPSIZE WHICH MEETS STABILITY CRITERION OF THE DISPERSION TERM
 =  20.29    (WHEN MIN. R.F.=1)  AT K=   1, I=   1, J=  31
     1 CALLS TO GCG PACKAGE FOR TRANSPORT TIME STEP   4 IN FLOW TIME STEP 419 STRESS PERIOD   1
     5 TOTAL ITERATIONS
  MAXIMUM CONCENTRATION CHANGES FOR EACH ITERATION:
  MAX. CHANGE LAYER,ROW,COL MAX. CHANGE LAYER,ROW,COL MAX. CHANGE LAYER,ROW,COL MAX. CHANGE LAYER,ROW,COL MAX. CHANGE LAYER,ROW,COL
 ------------------------------------------------------------------------------------------------------------------------------------
   0.1440E-01 (  2,  1, 78)  0.3121E-03 (  2,  1, 76)  0.6446E-05 (  2,  1, 42)  0.2364E-06 (  3,  1, 42)  0.6577E-08 (  4,  1, 75)


                                          ================================================
                                                         FROM TIME =   4190.0     TO    4200.0    

 
 SOLVING FOR HEAD 
 FLOW MODEL IS TRANSIENT
 FLOW MODEL CONTAINS CONSTANT-HEAD CELLS


 MAXIMUM STEPSIZE DURING WHICH ANY PARTICLE CANNOT MOVE MORE THAN ONE CELL
 =  5.343    (WHEN MIN. R.F.=1)  AT K=  27, I=   1, J=  67

 MAXIMUM STEPSIZE WHICH MEETS STABILITY CRITERION OF THE ADVECTION TERM
 (FOR PURE FINITE-DIFFERENCE OPTION, MIXELM=0) 
 =  4.522    (WHEN MIN. R.F.=1)  AT K=   2, I=   1, J=  44


 TOTAL NUMBER OF POINT SOURCES/SINKS PRESENT IN THE FLOW MODEL =    62

 MAXIMUM STEPSIZE WHICH MEETS STABILITY CRITERION OF THE SINK & SOURCE TERM
 =  224.2    (WHEN MIN. R.F.=1)  AT K=   2, I=   1, J= 120

 MAXIMUM STEPSIZE WHICH MEETS STABILITY CRITERION OF THE DISPERSION TERM
 =  20.29    (WHEN MIN. R.F.=1)  AT K=   1, I=   1, J=  31


     1 CALLS TO GCG PACKAGE FOR TRANSPORT TIME STEP   1 IN FLOW TIME STEP 420 STRESS PERIOD   1
     6 TOTAL ITERATIONS

 NO OUTPUT CONTROL FOR STRESS PERIOD    1   TIME STEP 420
 
 SOLVING FOR HEAD 
 FLOW MODEL IS TRANSIENT
 FLOW MODEL CONTAINS CONSTANT-HEAD CELLS


 MAXIMUM STEPSIZE DURING WHICH ANY PARTICLE CANNOT MOVE MORE THAN ONE CELL
 =  5.344    (WHEN MIN. R.F.=1)  AT K=  27, I=   1, J=  67

 MAXIMUM STEPSIZE WHICH MEETS STABILITY CRITERION OF THE ADVECTION TERM
 (FOR PURE FINITE-DIFFERENCE OPTION, MIXELM=0) 
 =  4.445    (WHEN MIN. R.F.=1)  AT K=   2, I=   1, J=  76


 TOTAL NUMBER OF POINT SOURCES/SINKS PRESENT IN THE FLOW MODEL =    62

 MAXIMUM STEPSIZE WHICH MEETS STABILITY CRITERION OF THE SINK & SOURCE TERM
 =  222.0    (WHEN MIN. R.F.=1)  AT K=   2, I=   1, J= 120

 MAXIMUM STEPSIZE WHICH MEETS STABILITY CRITERION OF THE DISPERSION TERM
 =  20.29    (WHEN MIN. R.F.=1)  AT K=   1, I=   1, J=  31
     1 CALLS TO GCG PACKAGE FOR TRANSPORT TIME STEP   2 IN FLOW TIME STEP 420 STRESS PERIOD   1
     6 TOTAL ITERATIONS
 
 SOLVING FOR HEAD 
 FLOW MODEL IS TRANSIENT
 FLOW MODEL CONTAINS CONSTANT-HEAD CELLS


 MAXIMUM STEPSIZE DURING WHICH ANY PARTICLE CANNOT MOVE MORE THAN ONE CELL
 =  5.353    (WHEN MIN. R.F.=1)  AT K=  27, I=   1, J=  67

 MAXIMUM STEPSIZE WHICH MEETS STABILITY CRITERION OF THE ADVECTION TERM
 (FOR PURE FINITE-DIFFERENCE OPTION, MIXELM=0) 
 =  4.279    (WHEN MIN. R.F.=1)  AT K=   2, I=   1, J=  76


 TOTAL NUMBER OF POINT SOURCES/SINKS PRESENT IN THE FLOW MODEL =    62

 MAXIMUM STEPSIZE WHICH MEETS STABILITY CRITERION OF THE SINK & SOURCE TERM
 =  232.4    (WHEN MIN. R.F.=1)  AT K=   2, I=   1, J= 120

 MAXIMUM STEPSIZE WHICH MEETS STABILITY CRITERION OF THE DISPERSION TERM
 =  20.29    (WHEN MIN. R.F.=1)  AT K=   1, I=   1, J=  31
     1 CALLS TO GCG PACKAGE FOR TRANSPORT TIME STEP   3 IN FLOW TIME STEP 420 STRESS PERIOD   1
     6 TOTAL ITERATIONS
 
 SOLVING FOR HEAD 
 FLOW MODEL IS TRANSIENT
 FLOW MODEL CONTAINS CONSTANT-HEAD CELLS


 MAXIMUM STEPSIZE DURING WHICH ANY PARTICLE CANNOT MOVE MORE THAN ONE CELL
 =  5.366    (WHEN MIN. R.F.=1)  AT K=  27, I=   1, J=  67

 MAXIMUM STEPSIZE WHICH MEETS STABILITY CRITERION OF THE ADVECTION TERM
 (FOR PURE FINITE-DIFFERENCE OPTION, MIXELM=0) 
 =  4.290    (WHEN MIN. R.F.=1)  AT K=   2, I=   1, J=  76


 TOTAL NUMBER OF POINT SOURCES/SINKS PRESENT IN THE FLOW MODEL =    62

 MAXIMUM STEPSIZE WHICH MEETS STABILITY CRITERION OF THE SINK & SOURCE TERM
 =  240.5    (WHEN MIN. R.F.=1)  AT K=   2, I=   1, J= 120

 MAXIMUM STEPSIZE WHICH MEETS STABILITY CRITERION OF THE DISPERSION TERM
 =  20.29    (WHEN MIN. R.F.=1)  AT K=   1, I=   1, J=  31
     1 CALLS TO GCG PACKAGE FOR TRANSPORT TIME STEP   4 IN FLOW TIME STEP 420 STRESS PERIOD   1
     2 TOTAL ITERATIONS
  MAXIMUM CONCENTRATION CHANGES FOR EACH ITERATION:
  MAX. CHANGE LAYER,ROW,COL MAX. CHANGE LAYER,ROW,COL MAX. CHANGE LAYER,ROW,COL MAX. CHANGE LAYER,ROW,COL MAX. CHANGE LAYER,ROW,COL
 ------------------------------------------------------------------------------------------------------------------------------------
   0.1498E-03 (  2,  1, 77)  0.3382E-07 (  2,  1, 77)


                                          ================================================
                                                         FROM TIME =   4200.0     TO    4210.0    

 
 SOLVING FOR HEAD 
 FLOW MODEL IS TRANSIENT
 FLOW MODEL CONTAINS CONSTANT-HEAD CELLS


 MAXIMUM STEPSIZE DURING WHICH ANY PARTICLE CANNOT MOVE MORE THAN ONE CELL
 =  5.366    (WHEN MIN. R.F.=1)  AT K=  27, I=   1, J=  67

 MAXIMUM STEPSIZE WHICH MEETS STABILITY CRITERION OF THE ADVECTION TERM
 (FOR PURE FINITE-DIFFERENCE OPTION, MIXELM=0) 
 =  4.287    (WHEN MIN. R.F.=1)  AT K=   2, I=   1, J=  76


 TOTAL NUMBER OF POINT SOURCES/SINKS PRESENT IN THE FLOW MODEL =    62

 MAXIMUM STEPSIZE WHICH MEETS STABILITY CRITERION OF THE SINK & SOURCE TERM
 =  240.6    (WHEN MIN. R.F.=1)  AT K=   2, I=   1, J= 120

 MAXIMUM STEPSIZE WHICH MEETS STABILITY CRITERION OF THE DISPERSION TERM
 =  20.29    (WHEN MIN. R.F.=1)  AT K=   1, I=   1, J=  31


     1 CALLS TO GCG PACKAGE FOR TRANSPORT TIME STEP   1 IN FLOW TIME STEP 421 STRESS PERIOD   1
     6 TOTAL ITERATIONS

 NO OUTPUT CONTROL FOR STRESS PERIOD    1   TIME STEP 421
 
 SOLVING FOR HEAD 
 FLOW MODEL IS TRANSIENT
 FLOW MODEL CONTAINS CONSTANT-HEAD CELLS


 MAXIMUM STEPSIZE DURING WHICH ANY PARTICLE CANNOT MOVE MORE THAN ONE CELL
 =  5.381    (WHEN MIN. R.F.=1)  AT K=  27, I=   1, J=  67

 MAXIMUM STEPSIZE WHICH MEETS STABILITY CRITERION OF THE ADVECTION TERM
 (FOR PURE FINITE-DIFFERENCE OPTION, MIXELM=0) 
 =  4.457    (WHEN MIN. R.F.=1)  AT K=   2, I=   1, J=  45


 TOTAL NUMBER OF POINT SOURCES/SINKS PRESENT IN THE FLOW MODEL =    62

 MAXIMUM STEPSIZE WHICH MEETS STABILITY CRITERION OF THE SINK & SOURCE TERM
 =  234.9    (WHEN MIN. R.F.=1)  AT K=   2, I=   1, J= 120

 MAXIMUM STEPSIZE WHICH MEETS STABILITY CRITERION OF THE DISPERSION TERM
 =  20.29    (WHEN MIN. R.F.=1)  AT K=   1, I=   1, J=  31
     1 CALLS TO GCG PACKAGE FOR TRANSPORT TIME STEP   2 IN FLOW TIME STEP 421 STRESS PERIOD   1
     6 TOTAL ITERATIONS
 
 SOLVING FOR HEAD 
 FLOW MODEL IS TRANSIENT
 FLOW MODEL CONTAINS CONSTANT-HEAD CELLS


 MAXIMUM STEPSIZE DURING WHICH ANY PARTICLE CANNOT MOVE MORE THAN ONE CELL
 =  5.399    (WHEN MIN. R.F.=1)  AT K=  27, I=   1, J=  67

 MAXIMUM STEPSIZE WHICH MEETS STABILITY CRITERION OF THE ADVECTION TERM
 (FOR PURE FINITE-DIFFERENCE OPTION, MIXELM=0) 
 =  4.627    (WHEN MIN. R.F.=1)  AT K=   2, I=   1, J=  82


 TOTAL NUMBER OF POINT SOURCES/SINKS PRESENT IN THE FLOW MODEL =    62

 MAXIMUM STEPSIZE WHICH MEETS STABILITY CRITERION OF THE SINK & SOURCE TERM
 =  230.7    (WHEN MIN. R.F.=1)  AT K=   2, I=   1, J= 120

 MAXIMUM STEPSIZE WHICH MEETS STABILITY CRITERION OF THE DISPERSION TERM
 =  20.29    (WHEN MIN. R.F.=1)  AT K=   1, I=   1, J=  31
     1 CALLS TO GCG PACKAGE FOR TRANSPORT TIME STEP   3 IN FLOW TIME STEP 421 STRESS PERIOD   1
     6 TOTAL ITERATIONS
 
 SOLVING FOR HEAD 
 FLOW MODEL IS TRANSIENT
 FLOW MODEL CONTAINS CONSTANT-HEAD CELLS


 MAXIMUM STEPSIZE DURING WHICH ANY PARTICLE CANNOT MOVE MORE THAN ONE CELL
 =  5.412    (WHEN MIN. R.F.=1)  AT K=  28, I=   1, J=  67

 MAXIMUM STEPSIZE WHICH MEETS STABILITY CRITERION OF THE ADVECTION TERM
 (FOR PURE FINITE-DIFFERENCE OPTION, MIXELM=0) 
 =  4.442    (WHEN MIN. R.F.=1)  AT K=   2, I=   1, J=  75


 TOTAL NUMBER OF POINT SOURCES/SINKS PRESENT IN THE FLOW MODEL =    62

 MAXIMUM STEPSIZE WHICH MEETS STABILITY CRITERION OF THE SINK & SOURCE TERM
 =  244.3    (WHEN MIN. R.F.=1)  AT K=   2, I=   1, J= 120

 MAXIMUM STEPSIZE WHICH MEETS STABILITY CRITERION OF THE DISPERSION TERM
 =  20.29    (WHEN MIN. R.F.=1)  AT K=   1, I=   1, J=  31
     1 CALLS TO GCG PACKAGE FOR TRANSPORT TIME STEP   4 IN FLOW TIME STEP 421 STRESS PERIOD   1
     3 TOTAL ITERATIONS
  MAXIMUM CONCENTRATION CHANGES FOR EACH ITERATION:
  MAX. CHANGE LAYER,ROW,COL MAX. CHANGE LAYER,ROW,COL MAX. CHANGE LAYER,ROW,COL MAX. CHANGE LAYER,ROW,COL MAX. CHANGE LAYER,ROW,COL
 ------------------------------------------------------------------------------------------------------------------------------------
   0.2550E-02 (  2,  1, 83)  0.1102E-04 (  2,  1, 83)  0.4624E-07 (  2,  1, 84)


                                          ================================================
                                                         FROM TIME =   4210.0     TO    4220.0    

 
 SOLVING FOR HEAD 
 FLOW MODEL IS TRANSIENT
 FLOW MODEL CONTAINS CONSTANT-HEAD CELLS


 MAXIMUM STEPSIZE DURING WHICH ANY PARTICLE CANNOT MOVE MORE THAN ONE CELL
 =  5.414    (WHEN MIN. R.F.=1)  AT K=  28, I=   1, J=  67

 MAXIMUM STEPSIZE WHICH MEETS STABILITY CRITERION OF THE ADVECTION TERM
 (FOR PURE FINITE-DIFFERENCE OPTION, MIXELM=0) 
 =  4.423    (WHEN MIN. R.F.=1)  AT K=   2, I=   1, J=  75


 TOTAL NUMBER OF POINT SOURCES/SINKS PRESENT IN THE FLOW MODEL =    62

 MAXIMUM STEPSIZE WHICH MEETS STABILITY CRITERION OF THE SINK & SOURCE TERM
 =  244.7    (WHEN MIN. R.F.=1)  AT K=   2, I=   1, J= 120

 MAXIMUM STEPSIZE WHICH MEETS STABILITY CRITERION OF THE DISPERSION TERM
 =  20.29    (WHEN MIN. R.F.=1)  AT K=   1, I=   1, J=  31


     1 CALLS TO GCG PACKAGE FOR TRANSPORT TIME STEP   1 IN FLOW TIME STEP 422 STRESS PERIOD   1
     6 TOTAL ITERATIONS

 NO OUTPUT CONTROL FOR STRESS PERIOD    1   TIME STEP 422
 
 SOLVING FOR HEAD 
 FLOW MODEL IS TRANSIENT
 FLOW MODEL CONTAINS CONSTANT-HEAD CELLS


 MAXIMUM STEPSIZE DURING WHICH ANY PARTICLE CANNOT MOVE MORE THAN ONE CELL
 =  5.423    (WHEN MIN. R.F.=1)  AT K=  28, I=   1, J=  67

 MAXIMUM STEPSIZE WHICH MEETS STABILITY CRITERION OF THE ADVECTION TERM
 (FOR PURE FINITE-DIFFERENCE OPTION, MIXELM=0) 
 =  4.232    (WHEN MIN. R.F.=1)  AT K=   2, I=   1, J=  75


 TOTAL NUMBER OF POINT SOURCES/SINKS PRESENT IN THE FLOW MODEL =    62

 MAXIMUM STEPSIZE WHICH MEETS STABILITY CRITERION OF THE SINK & SOURCE TERM
 =  232.9    (WHEN MIN. R.F.=1)  AT K=   2, I=   1, J= 120

 MAXIMUM STEPSIZE WHICH MEETS STABILITY CRITERION OF THE DISPERSION TERM
 =  20.29    (WHEN MIN. R.F.=1)  AT K=   1, I=   1, J=  31
     1 CALLS TO GCG PACKAGE FOR TRANSPORT TIME STEP   2 IN FLOW TIME STEP 422 STRESS PERIOD   1
     6 TOTAL ITERATIONS
 
 SOLVING FOR HEAD 
 FLOW MODEL IS TRANSIENT
 FLOW MODEL CONTAINS CONSTANT-HEAD CELLS


 MAXIMUM STEPSIZE DURING WHICH ANY PARTICLE CANNOT MOVE MORE THAN ONE CELL
 =  5.429    (WHEN MIN. R.F.=1)  AT K=   4, I=   1, J=  74

 MAXIMUM STEPSIZE WHICH MEETS STABILITY CRITERION OF THE ADVECTION TERM
 (FOR PURE FINITE-DIFFERENCE OPTION, MIXELM=0) 
 =  4.146    (WHEN MIN. R.F.=1)  AT K=   2, I=   1, J=  81


 TOTAL NUMBER OF POINT SOURCES/SINKS PRESENT IN THE FLOW MODEL =    62

 MAXIMUM STEPSIZE WHICH MEETS STABILITY CRITERION OF THE SINK & SOURCE TERM
 =  229.4    (WHEN MIN. R.F.=1)  AT K=   2, I=   1, J= 120

 MAXIMUM STEPSIZE WHICH MEETS STABILITY CRITERION OF THE DISPERSION TERM
 =  20.29    (WHEN MIN. R.F.=1)  AT K=   1, I=   1, J=  31
     1 CALLS TO GCG PACKAGE FOR TRANSPORT TIME STEP   3 IN FLOW TIME STEP 422 STRESS PERIOD   1
     6 TOTAL ITERATIONS
 
 SOLVING FOR HEAD 
 FLOW MODEL IS TRANSIENT
 FLOW MODEL CONTAINS CONSTANT-HEAD CELLS


 MAXIMUM STEPSIZE DURING WHICH ANY PARTICLE CANNOT MOVE MORE THAN ONE CELL
 =  5.223    (WHEN MIN. R.F.=1)  AT K=   4, I=   1, J=  74

 MAXIMUM STEPSIZE WHICH MEETS STABILITY CRITERION OF THE ADVECTION TERM
 (FOR PURE FINITE-DIFFERENCE OPTION, MIXELM=0) 
 =  3.900    (WHEN MIN. R.F.=1)  AT K=   2, I=   1, J=  81


 TOTAL NUMBER OF POINT SOURCES/SINKS PRESENT IN THE FLOW MODEL =    62

 MAXIMUM STEPSIZE WHICH MEETS STABILITY CRITERION OF THE SINK & SOURCE TERM
 =  242.5    (WHEN MIN. R.F.=1)  AT K=   2, I=   1, J= 120

 MAXIMUM STEPSIZE WHICH MEETS STABILITY CRITERION OF THE DISPERSION TERM
 =  20.29    (WHEN MIN. R.F.=1)  AT K=   1, I=   1, J=  31
     1 CALLS TO GCG PACKAGE FOR TRANSPORT TIME STEP   4 IN FLOW TIME STEP 422 STRESS PERIOD   1
     3 TOTAL ITERATIONS
  MAXIMUM CONCENTRATION CHANGES FOR EACH ITERATION:
  MAX. CHANGE LAYER,ROW,COL MAX. CHANGE LAYER,ROW,COL MAX. CHANGE LAYER,ROW,COL MAX. CHANGE LAYER,ROW,COL MAX. CHANGE LAYER,ROW,COL
 ------------------------------------------------------------------------------------------------------------------------------------
   0.1997E-02 (  2,  1, 76)  0.5956E-05 (  2,  1, 82)  0.2174E-07 (  2,  1, 77)


                                          ================================================
                                                         FROM TIME =   4220.0     TO    4230.0    

 
 SOLVING FOR HEAD 
 FLOW MODEL IS TRANSIENT
 FLOW MODEL CONTAINS CONSTANT-HEAD CELLS


 MAXIMUM STEPSIZE DURING WHICH ANY PARTICLE CANNOT MOVE MORE THAN ONE CELL
 =  5.213    (WHEN MIN. R.F.=1)  AT K=   4, I=   1, J=  74

 MAXIMUM STEPSIZE WHICH MEETS STABILITY CRITERION OF THE ADVECTION TERM
 (FOR PURE FINITE-DIFFERENCE OPTION, MIXELM=0) 
 =  3.894    (WHEN MIN. R.F.=1)  AT K=   2, I=   1, J=  81


 TOTAL NUMBER OF POINT SOURCES/SINKS PRESENT IN THE FLOW MODEL =    62

 MAXIMUM STEPSIZE WHICH MEETS STABILITY CRITERION OF THE SINK & SOURCE TERM
 =  247.4    (WHEN MIN. R.F.=1)  AT K=   2, I=   1, J= 120

 MAXIMUM STEPSIZE WHICH MEETS STABILITY CRITERION OF THE DISPERSION TERM
 =  20.29    (WHEN MIN. R.F.=1)  AT K=   1, I=   1, J=  31


     1 CALLS TO GCG PACKAGE FOR TRANSPORT TIME STEP   1 IN FLOW TIME STEP 423 STRESS PERIOD   1
     6 TOTAL ITERATIONS

 NO OUTPUT CONTROL FOR STRESS PERIOD    1   TIME STEP 423
 
 SOLVING FOR HEAD 
 FLOW MODEL IS TRANSIENT
 FLOW MODEL CONTAINS CONSTANT-HEAD CELLS


 MAXIMUM STEPSIZE DURING WHICH ANY PARTICLE CANNOT MOVE MORE THAN ONE CELL
 =  5.078    (WHEN MIN. R.F.=1)  AT K=   4, I=   1, J=  74

 MAXIMUM STEPSIZE WHICH MEETS STABILITY CRITERION OF THE ADVECTION TERM
 (FOR PURE FINITE-DIFFERENCE OPTION, MIXELM=0) 
 =  3.882    (WHEN MIN. R.F.=1)  AT K=   2, I=   1, J=  81


 TOTAL NUMBER OF POINT SOURCES/SINKS PRESENT IN THE FLOW MODEL =    62

 MAXIMUM STEPSIZE WHICH MEETS STABILITY CRITERION OF THE SINK & SOURCE TERM
 =  239.1    (WHEN MIN. R.F.=1)  AT K=   2, I=   1, J= 120

 MAXIMUM STEPSIZE WHICH MEETS STABILITY CRITERION OF THE DISPERSION TERM
 =  20.29    (WHEN MIN. R.F.=1)  AT K=   1, I=   1, J=  31
     1 CALLS TO GCG PACKAGE FOR TRANSPORT TIME STEP   2 IN FLOW TIME STEP 423 STRESS PERIOD   1
     6 TOTAL ITERATIONS
 
 SOLVING FOR HEAD 
 FLOW MODEL IS TRANSIENT
 FLOW MODEL CONTAINS CONSTANT-HEAD CELLS


 MAXIMUM STEPSIZE DURING WHICH ANY PARTICLE CANNOT MOVE MORE THAN ONE CELL
 =  4.982    (WHEN MIN. R.F.=1)  AT K=   4, I=   1, J=  74

 MAXIMUM STEPSIZE WHICH MEETS STABILITY CRITERION OF THE ADVECTION TERM
 (FOR PURE FINITE-DIFFERENCE OPTION, MIXELM=0) 
 =  4.029    (WHEN MIN. R.F.=1)  AT K=   2, I=   1, J=  40


 TOTAL NUMBER OF POINT SOURCES/SINKS PRESENT IN THE FLOW MODEL =    62

 MAXIMUM STEPSIZE WHICH MEETS STABILITY CRITERION OF THE SINK & SOURCE TERM
 =  232.9    (WHEN MIN. R.F.=1)  AT K=   2, I=   1, J= 120

 MAXIMUM STEPSIZE WHICH MEETS STABILITY CRITERION OF THE DISPERSION TERM
 =  20.29    (WHEN MIN. R.F.=1)  AT K=   1, I=   1, J=  31
     1 CALLS TO GCG PACKAGE FOR TRANSPORT TIME STEP   3 IN FLOW TIME STEP 423 STRESS PERIOD   1
     6 TOTAL ITERATIONS
 
 SOLVING FOR HEAD 
 FLOW MODEL IS TRANSIENT
 FLOW MODEL CONTAINS CONSTANT-HEAD CELLS


 MAXIMUM STEPSIZE DURING WHICH ANY PARTICLE CANNOT MOVE MORE THAN ONE CELL
 =  4.927    (WHEN MIN. R.F.=1)  AT K=   4, I=   1, J=  74

 MAXIMUM STEPSIZE WHICH MEETS STABILITY CRITERION OF THE ADVECTION TERM
 (FOR PURE FINITE-DIFFERENCE OPTION, MIXELM=0) 
 =  3.795    (WHEN MIN. R.F.=1)  AT K=   2, I=   1, J=  80


 TOTAL NUMBER OF POINT SOURCES/SINKS PRESENT IN THE FLOW MODEL =    62

 MAXIMUM STEPSIZE WHICH MEETS STABILITY CRITERION OF THE SINK & SOURCE TERM
 =  233.0    (WHEN MIN. R.F.=1)  AT K=   2, I=   1, J= 120

 MAXIMUM STEPSIZE WHICH MEETS STABILITY CRITERION OF THE DISPERSION TERM
 =  20.29    (WHEN MIN. R.F.=1)  AT K=   1, I=   1, J=  31
     1 CALLS TO GCG PACKAGE FOR TRANSPORT TIME STEP   4 IN FLOW TIME STEP 423 STRESS PERIOD   1
     5 TOTAL ITERATIONS
  MAXIMUM CONCENTRATION CHANGES FOR EACH ITERATION:
  MAX. CHANGE LAYER,ROW,COL MAX. CHANGE LAYER,ROW,COL MAX. CHANGE LAYER,ROW,COL MAX. CHANGE LAYER,ROW,COL MAX. CHANGE LAYER,ROW,COL
 ------------------------------------------------------------------------------------------------------------------------------------
   0.1420E-01 (  2,  1, 39)  0.2403E-03 (  3,  1, 44)  0.6442E-05 (  3,  1, 41)  0.2217E-06 (  3,  1, 77)  0.4770E-08 (  2,  1, 80)


                                          ================================================
                                                         FROM TIME =   4230.0     TO    4240.0    

 
 SOLVING FOR HEAD 
 FLOW MODEL IS TRANSIENT
 FLOW MODEL CONTAINS CONSTANT-HEAD CELLS


 MAXIMUM STEPSIZE DURING WHICH ANY PARTICLE CANNOT MOVE MORE THAN ONE CELL
 =  4.917    (WHEN MIN. R.F.=1)  AT K=   4, I=   1, J=  74

 MAXIMUM STEPSIZE WHICH MEETS STABILITY CRITERION OF THE ADVECTION TERM
 (FOR PURE FINITE-DIFFERENCE OPTION, MIXELM=0) 
 =  3.712    (WHEN MIN. R.F.=1)  AT K=   2, I=   1, J=  80


 TOTAL NUMBER OF POINT SOURCES/SINKS PRESENT IN THE FLOW MODEL =    62

 MAXIMUM STEPSIZE WHICH MEETS STABILITY CRITERION OF THE SINK & SOURCE TERM
 =  237.9    (WHEN MIN. R.F.=1)  AT K=   2, I=   1, J= 120

 MAXIMUM STEPSIZE WHICH MEETS STABILITY CRITERION OF THE DISPERSION TERM
 =  20.29    (WHEN MIN. R.F.=1)  AT K=   1, I=   1, J=  31


     1 CALLS TO GCG PACKAGE FOR TRANSPORT TIME STEP   1 IN FLOW TIME STEP 424 STRESS PERIOD   1
     6 TOTAL ITERATIONS

 NO OUTPUT CONTROL FOR STRESS PERIOD    1   TIME STEP 424
 
 SOLVING FOR HEAD 
 FLOW MODEL IS TRANSIENT
 FLOW MODEL CONTAINS CONSTANT-HEAD CELLS


 MAXIMUM STEPSIZE DURING WHICH ANY PARTICLE CANNOT MOVE MORE THAN ONE CELL
 =  4.917    (WHEN MIN. R.F.=1)  AT K=   4, I=   1, J=  74

 MAXIMUM STEPSIZE WHICH MEETS STABILITY CRITERION OF THE ADVECTION TERM
 (FOR PURE FINITE-DIFFERENCE OPTION, MIXELM=0) 
 =  3.617    (WHEN MIN. R.F.=1)  AT K=   2, I=   1, J=  80


 TOTAL NUMBER OF POINT SOURCES/SINKS PRESENT IN THE FLOW MODEL =    62

 MAXIMUM STEPSIZE WHICH MEETS STABILITY CRITERION OF THE SINK & SOURCE TERM
 =  245.1    (WHEN MIN. R.F.=1)  AT K=   2, I=   1, J= 120

 MAXIMUM STEPSIZE WHICH MEETS STABILITY CRITERION OF THE DISPERSION TERM
 =  20.29    (WHEN MIN. R.F.=1)  AT K=   1, I=   1, J=  31
     1 CALLS TO GCG PACKAGE FOR TRANSPORT TIME STEP   2 IN FLOW TIME STEP 424 STRESS PERIOD   1
     3 TOTAL ITERATIONS



 >>>>>>>>>>>>>>>>>>>>>>>>>>>>>>>>>>>>>>>>>>>>>>>>>>>>>>>FOR COMPONENT NO. 01<<<<<<<<<<<<<<<<<<<<<<<<<<<<<<<<<<<<<<<<<<<<<<<<<<<<<<<


                                            -------------------------------------------
                                                      TRANSPORT STEP NO.    2
                                            -------------------------------------------

 TOTAL ELAPSED TIME SINCE BEGINNING OF SIMULATION =   4233.100    D   
 .....................................................................

                     CUMULATIVE MASS BUDGETS AT END OF TRANSPORT STEP    2, TIME STEP  424, STRESS PERIOD    1
                     ------------------------------------------------------------------------------------------

                                                             IN                           OUT
                                                      ----------------             ----------------
                               CONSTANT CONCENTRATION:    2599758.                   -1680151.    
                                        CONSTANT HEAD:    0.000000                   -508.6295    
                               MASS STOR (FLOW MODEL):    290.4345                   -480.8867    
                                MASS STORAGE (SOLUTE):    4341370.                   -5260278.    
                            ---------------------------------------------------------------------------
                                              [TOTAL]:    6941418.     KG            -6941418.     KG  

                                                          NET (IN - OUT):  -0.8512623E-02
                                                   DISCREPANCY (PERCENT):  -0.1226352E-06
 
 SOLVING FOR HEAD 
 FLOW MODEL IS TRANSIENT
 FLOW MODEL CONTAINS CONSTANT-HEAD CELLS


 MAXIMUM STEPSIZE DURING WHICH ANY PARTICLE CANNOT MOVE MORE THAN ONE CELL
 =  4.919    (WHEN MIN. R.F.=1)  AT K=   4, I=   1, J=  74

 MAXIMUM STEPSIZE WHICH MEETS STABILITY CRITERION OF THE ADVECTION TERM
 (FOR PURE FINITE-DIFFERENCE OPTION, MIXELM=0) 
 =  3.618    (WHEN MIN. R.F.=1)  AT K=   2, I=   1, J=  80


 TOTAL NUMBER OF POINT SOURCES/SINKS PRESENT IN THE FLOW MODEL =    62

 MAXIMUM STEPSIZE WHICH MEETS STABILITY CRITERION OF THE SINK & SOURCE TERM
 =  259.6    (WHEN MIN. R.F.=1)  AT K=   2, I=   1, J= 120

 MAXIMUM STEPSIZE WHICH MEETS STABILITY CRITERION OF THE DISPERSION TERM
 =  20.29    (WHEN MIN. R.F.=1)  AT K=   1, I=   1, J=  31
     1 CALLS TO GCG PACKAGE FOR TRANSPORT TIME STEP   3 IN FLOW TIME STEP 424 STRESS PERIOD   1
     6 TOTAL ITERATIONS
 
 SOLVING FOR HEAD 
 FLOW MODEL IS TRANSIENT
 FLOW MODEL CONTAINS CONSTANT-HEAD CELLS


 MAXIMUM STEPSIZE DURING WHICH ANY PARTICLE CANNOT MOVE MORE THAN ONE CELL
 =  4.963    (WHEN MIN. R.F.=1)  AT K=   4, I=   1, J=  74

 MAXIMUM STEPSIZE WHICH MEETS STABILITY CRITERION OF THE ADVECTION TERM
 (FOR PURE FINITE-DIFFERENCE OPTION, MIXELM=0) 
 =  3.689    (WHEN MIN. R.F.=1)  AT K=   2, I=   1, J=  80


 TOTAL NUMBER OF POINT SOURCES/SINKS PRESENT IN THE FLOW MODEL =    62

 MAXIMUM STEPSIZE WHICH MEETS STABILITY CRITERION OF THE SINK & SOURCE TERM
 =  247.6    (WHEN MIN. R.F.=1)  AT K=   2, I=   1, J= 120

 MAXIMUM STEPSIZE WHICH MEETS STABILITY CRITERION OF THE DISPERSION TERM
 =  20.29    (WHEN MIN. R.F.=1)  AT K=   1, I=   1, J=  31
     1 CALLS TO GCG PACKAGE FOR TRANSPORT TIME STEP   4 IN FLOW TIME STEP 424 STRESS PERIOD   1
     6 TOTAL ITERATIONS
 
 SOLVING FOR HEAD 
 FLOW MODEL IS TRANSIENT
 FLOW MODEL CONTAINS CONSTANT-HEAD CELLS


 MAXIMUM STEPSIZE DURING WHICH ANY PARTICLE CANNOT MOVE MORE THAN ONE CELL
 =  5.021    (WHEN MIN. R.F.=1)  AT K=   5, I=   1, J=  74

 MAXIMUM STEPSIZE WHICH MEETS STABILITY CRITERION OF THE ADVECTION TERM
 (FOR PURE FINITE-DIFFERENCE OPTION, MIXELM=0) 
 =  3.802    (WHEN MIN. R.F.=1)  AT K=   2, I=   1, J=  41


 TOTAL NUMBER OF POINT SOURCES/SINKS PRESENT IN THE FLOW MODEL =    62

 MAXIMUM STEPSIZE WHICH MEETS STABILITY CRITERION OF THE SINK & SOURCE TERM
 =  251.2    (WHEN MIN. R.F.=1)  AT K=   2, I=   1, J= 120

 MAXIMUM STEPSIZE WHICH MEETS STABILITY CRITERION OF THE DISPERSION TERM
 =  20.29    (WHEN MIN. R.F.=1)  AT K=   1, I=   1, J=  31
     1 CALLS TO GCG PACKAGE FOR TRANSPORT TIME STEP   5 IN FLOW TIME STEP 424 STRESS PERIOD   1
     5 TOTAL ITERATIONS
  MAXIMUM CONCENTRATION CHANGES FOR EACH ITERATION:
  MAX. CHANGE LAYER,ROW,COL MAX. CHANGE LAYER,ROW,COL MAX. CHANGE LAYER,ROW,COL MAX. CHANGE LAYER,ROW,COL MAX. CHANGE LAYER,ROW,COL
 ------------------------------------------------------------------------------------------------------------------------------------
   0.1816E-01 (  2,  1, 81)  0.4214E-03 (  2,  1, 79)  0.1542E-04 (  3,  1, 79)  0.4155E-06 (  4,  1, 79)  0.1066E-07 (  4,  1, 78)


                                          ================================================
                                                         FROM TIME =   4240.0     TO    4250.0    

 
 SOLVING FOR HEAD 
 FLOW MODEL IS TRANSIENT
 FLOW MODEL CONTAINS CONSTANT-HEAD CELLS


 MAXIMUM STEPSIZE DURING WHICH ANY PARTICLE CANNOT MOVE MORE THAN ONE CELL
 =  5.050    (WHEN MIN. R.F.=1)  AT K=   5, I=   1, J=  74

 MAXIMUM STEPSIZE WHICH MEETS STABILITY CRITERION OF THE ADVECTION TERM
 (FOR PURE FINITE-DIFFERENCE OPTION, MIXELM=0) 
 =  3.818    (WHEN MIN. R.F.=1)  AT K=   2, I=   1, J=  79


 TOTAL NUMBER OF POINT SOURCES/SINKS PRESENT IN THE FLOW MODEL =    62

 MAXIMUM STEPSIZE WHICH MEETS STABILITY CRITERION OF THE SINK & SOURCE TERM
 =  266.3    (WHEN MIN. R.F.=1)  AT K=   2, I=   1, J= 120

 MAXIMUM STEPSIZE WHICH MEETS STABILITY CRITERION OF THE DISPERSION TERM
 =  20.29    (WHEN MIN. R.F.=1)  AT K=   1, I=   1, J=  31


     1 CALLS TO GCG PACKAGE FOR TRANSPORT TIME STEP   1 IN FLOW TIME STEP 425 STRESS PERIOD   1
     6 TOTAL ITERATIONS

 NO OUTPUT CONTROL FOR STRESS PERIOD    1   TIME STEP 425
 
 SOLVING FOR HEAD 
 FLOW MODEL IS TRANSIENT
 FLOW MODEL CONTAINS CONSTANT-HEAD CELLS


 MAXIMUM STEPSIZE DURING WHICH ANY PARTICLE CANNOT MOVE MORE THAN ONE CELL
 =  5.126    (WHEN MIN. R.F.=1)  AT K=   5, I=   1, J=  74

 MAXIMUM STEPSIZE WHICH MEETS STABILITY CRITERION OF THE ADVECTION TERM
 (FOR PURE FINITE-DIFFERENCE OPTION, MIXELM=0) 
 =  3.613    (WHEN MIN. R.F.=1)  AT K=   2, I=   1, J=  79


 TOTAL NUMBER OF POINT SOURCES/SINKS PRESENT IN THE FLOW MODEL =    62

 MAXIMUM STEPSIZE WHICH MEETS STABILITY CRITERION OF THE SINK & SOURCE TERM
 =  259.6    (WHEN MIN. R.F.=1)  AT K=   2, I=   1, J= 120

 MAXIMUM STEPSIZE WHICH MEETS STABILITY CRITERION OF THE DISPERSION TERM
 =  20.29    (WHEN MIN. R.F.=1)  AT K=   1, I=   1, J=  31
     1 CALLS TO GCG PACKAGE FOR TRANSPORT TIME STEP   2 IN FLOW TIME STEP 425 STRESS PERIOD   1
     6 TOTAL ITERATIONS
 
 SOLVING FOR HEAD 
 FLOW MODEL IS TRANSIENT
 FLOW MODEL CONTAINS CONSTANT-HEAD CELLS


 MAXIMUM STEPSIZE DURING WHICH ANY PARTICLE CANNOT MOVE MORE THAN ONE CELL
 =  5.233    (WHEN MIN. R.F.=1)  AT K=   5, I=   1, J=  74

 MAXIMUM STEPSIZE WHICH MEETS STABILITY CRITERION OF THE ADVECTION TERM
 (FOR PURE FINITE-DIFFERENCE OPTION, MIXELM=0) 
 =  3.556    (WHEN MIN. R.F.=1)  AT K=   2, I=   1, J=  79


 TOTAL NUMBER OF POINT SOURCES/SINKS PRESENT IN THE FLOW MODEL =    62

 MAXIMUM STEPSIZE WHICH MEETS STABILITY CRITERION OF THE SINK & SOURCE TERM
 =  266.9    (WHEN MIN. R.F.=1)  AT K=   2, I=   1, J= 120

 MAXIMUM STEPSIZE WHICH MEETS STABILITY CRITERION OF THE DISPERSION TERM
 =  20.29    (WHEN MIN. R.F.=1)  AT K=   1, I=   1, J=  31
     1 CALLS TO GCG PACKAGE FOR TRANSPORT TIME STEP   3 IN FLOW TIME STEP 425 STRESS PERIOD   1
     6 TOTAL ITERATIONS
 
 SOLVING FOR HEAD 
 FLOW MODEL IS TRANSIENT
 FLOW MODEL CONTAINS CONSTANT-HEAD CELLS


 MAXIMUM STEPSIZE DURING WHICH ANY PARTICLE CANNOT MOVE MORE THAN ONE CELL
 =  5.370    (WHEN MIN. R.F.=1)  AT K=   5, I=   1, J=  74

 MAXIMUM STEPSIZE WHICH MEETS STABILITY CRITERION OF THE ADVECTION TERM
 (FOR PURE FINITE-DIFFERENCE OPTION, MIXELM=0) 
 =  3.631    (WHEN MIN. R.F.=1)  AT K=   2, I=   1, J=  79


 TOTAL NUMBER OF POINT SOURCES/SINKS PRESENT IN THE FLOW MODEL =    62

 MAXIMUM STEPSIZE WHICH MEETS STABILITY CRITERION OF THE SINK & SOURCE TERM
 =  275.1    (WHEN MIN. R.F.=1)  AT K=   2, I=   1, J= 120

 MAXIMUM STEPSIZE WHICH MEETS STABILITY CRITERION OF THE DISPERSION TERM
 =  20.29    (WHEN MIN. R.F.=1)  AT K=   1, I=   1, J=  31
     1 CALLS TO GCG PACKAGE FOR TRANSPORT TIME STEP   4 IN FLOW TIME STEP 425 STRESS PERIOD   1
     5 TOTAL ITERATIONS
  MAXIMUM CONCENTRATION CHANGES FOR EACH ITERATION:
  MAX. CHANGE LAYER,ROW,COL MAX. CHANGE LAYER,ROW,COL MAX. CHANGE LAYER,ROW,COL MAX. CHANGE LAYER,ROW,COL MAX. CHANGE LAYER,ROW,COL
 ------------------------------------------------------------------------------------------------------------------------------------
   0.1994E-01 (  2,  1, 80)  0.4293E-03 (  2,  1, 78)  0.1852E-04 (  3,  1, 78)  0.8202E-06 (  3,  1, 45)  0.2371E-07 (  4,  1, 45)


                                          ================================================
                                                         FROM TIME =   4250.0     TO    4260.0    

 
 SOLVING FOR HEAD 
 FLOW MODEL IS TRANSIENT
 FLOW MODEL CONTAINS CONSTANT-HEAD CELLS


 MAXIMUM STEPSIZE DURING WHICH ANY PARTICLE CANNOT MOVE MORE THAN ONE CELL
 =  5.434    (WHEN MIN. R.F.=1)  AT K=   6, I=   1, J=  74

 MAXIMUM STEPSIZE WHICH MEETS STABILITY CRITERION OF THE ADVECTION TERM
 (FOR PURE FINITE-DIFFERENCE OPTION, MIXELM=0) 
 =  3.752    (WHEN MIN. R.F.=1)  AT K=   2, I=   1, J=  42


 TOTAL NUMBER OF POINT SOURCES/SINKS PRESENT IN THE FLOW MODEL =    62

 MAXIMUM STEPSIZE WHICH MEETS STABILITY CRITERION OF THE SINK & SOURCE TERM
 =  290.6    (WHEN MIN. R.F.=1)  AT K=   2, I=   1, J= 120

 MAXIMUM STEPSIZE WHICH MEETS STABILITY CRITERION OF THE DISPERSION TERM
 =  20.29    (WHEN MIN. R.F.=1)  AT K=   1, I=   1, J=  31


     1 CALLS TO GCG PACKAGE FOR TRANSPORT TIME STEP   1 IN FLOW TIME STEP 426 STRESS PERIOD   1
     6 TOTAL ITERATIONS

 NO OUTPUT CONTROL FOR STRESS PERIOD    1   TIME STEP 426
 
 SOLVING FOR HEAD 
 FLOW MODEL IS TRANSIENT
 FLOW MODEL CONTAINS CONSTANT-HEAD CELLS


 MAXIMUM STEPSIZE DURING WHICH ANY PARTICLE CANNOT MOVE MORE THAN ONE CELL
 =  5.552    (WHEN MIN. R.F.=1)  AT K=   4, I=   1, J=  60

 MAXIMUM STEPSIZE WHICH MEETS STABILITY CRITERION OF THE ADVECTION TERM
 (FOR PURE FINITE-DIFFERENCE OPTION, MIXELM=0) 
 =  3.768    (WHEN MIN. R.F.=1)  AT K=   2, I=   1, J=  42


 TOTAL NUMBER OF POINT SOURCES/SINKS PRESENT IN THE FLOW MODEL =    62

 MAXIMUM STEPSIZE WHICH MEETS STABILITY CRITERION OF THE SINK & SOURCE TERM
 =  286.2    (WHEN MIN. R.F.=1)  AT K=   2, I=   1, J= 120

 MAXIMUM STEPSIZE WHICH MEETS STABILITY CRITERION OF THE DISPERSION TERM
 =  20.29    (WHEN MIN. R.F.=1)  AT K=   1, I=   1, J=  31
     1 CALLS TO GCG PACKAGE FOR TRANSPORT TIME STEP   2 IN FLOW TIME STEP 426 STRESS PERIOD   1
     6 TOTAL ITERATIONS
 
 SOLVING FOR HEAD 
 FLOW MODEL IS TRANSIENT
 FLOW MODEL CONTAINS CONSTANT-HEAD CELLS


 MAXIMUM STEPSIZE DURING WHICH ANY PARTICLE CANNOT MOVE MORE THAN ONE CELL
 =  5.550    (WHEN MIN. R.F.=1)  AT K=   4, I=   1, J=  60

 MAXIMUM STEPSIZE WHICH MEETS STABILITY CRITERION OF THE ADVECTION TERM
 (FOR PURE FINITE-DIFFERENCE OPTION, MIXELM=0) 
 =  3.754    (WHEN MIN. R.F.=1)  AT K=   2, I=   1, J=  78


 TOTAL NUMBER OF POINT SOURCES/SINKS PRESENT IN THE FLOW MODEL =    62

 MAXIMUM STEPSIZE WHICH MEETS STABILITY CRITERION OF THE SINK & SOURCE TERM
 =  297.9    (WHEN MIN. R.F.=1)  AT K=   2, I=   1, J= 120

 MAXIMUM STEPSIZE WHICH MEETS STABILITY CRITERION OF THE DISPERSION TERM
 =  20.29    (WHEN MIN. R.F.=1)  AT K=   1, I=   1, J=  31
     1 CALLS TO GCG PACKAGE FOR TRANSPORT TIME STEP   3 IN FLOW TIME STEP 426 STRESS PERIOD   1
     6 TOTAL ITERATIONS
 
 SOLVING FOR HEAD 
 FLOW MODEL IS TRANSIENT
 FLOW MODEL CONTAINS CONSTANT-HEAD CELLS


 MAXIMUM STEPSIZE DURING WHICH ANY PARTICLE CANNOT MOVE MORE THAN ONE CELL
 =  5.548    (WHEN MIN. R.F.=1)  AT K=   4, I=   1, J=  60

 MAXIMUM STEPSIZE WHICH MEETS STABILITY CRITERION OF THE ADVECTION TERM
 (FOR PURE FINITE-DIFFERENCE OPTION, MIXELM=0) 
 =  3.641    (WHEN MIN. R.F.=1)  AT K=   2, I=   1, J=  78


 TOTAL NUMBER OF POINT SOURCES/SINKS PRESENT IN THE FLOW MODEL =    62

 MAXIMUM STEPSIZE WHICH MEETS STABILITY CRITERION OF THE SINK & SOURCE TERM
 =  304.3    (WHEN MIN. R.F.=1)  AT K=   2, I=   1, J= 120

 MAXIMUM STEPSIZE WHICH MEETS STABILITY CRITERION OF THE DISPERSION TERM
 =  20.29    (WHEN MIN. R.F.=1)  AT K=   1, I=   1, J=  31
     1 CALLS TO GCG PACKAGE FOR TRANSPORT TIME STEP   4 IN FLOW TIME STEP 426 STRESS PERIOD   1
     5 TOTAL ITERATIONS
  MAXIMUM CONCENTRATION CHANGES FOR EACH ITERATION:
  MAX. CHANGE LAYER,ROW,COL MAX. CHANGE LAYER,ROW,COL MAX. CHANGE LAYER,ROW,COL MAX. CHANGE LAYER,ROW,COL MAX. CHANGE LAYER,ROW,COL
 ------------------------------------------------------------------------------------------------------------------------------------
   0.1801E-01 (  2,  1, 41)  0.4753E-03 (  2,  1, 79)  0.1445E-04 (  2,  1, 80)  0.5250E-06 (  3,  1, 80)  0.1901E-07 (  3,  1, 77)


                                          ================================================
                                                         FROM TIME =   4260.0     TO    4270.0    

 
 SOLVING FOR HEAD 
 FLOW MODEL IS TRANSIENT
 FLOW MODEL CONTAINS CONSTANT-HEAD CELLS


 MAXIMUM STEPSIZE DURING WHICH ANY PARTICLE CANNOT MOVE MORE THAN ONE CELL
 =  5.550    (WHEN MIN. R.F.=1)  AT K=   4, I=   1, J=  60

 MAXIMUM STEPSIZE WHICH MEETS STABILITY CRITERION OF THE ADVECTION TERM
 (FOR PURE FINITE-DIFFERENCE OPTION, MIXELM=0) 
 =  3.640    (WHEN MIN. R.F.=1)  AT K=   2, I=   1, J=  78


 TOTAL NUMBER OF POINT SOURCES/SINKS PRESENT IN THE FLOW MODEL =    62

 MAXIMUM STEPSIZE WHICH MEETS STABILITY CRITERION OF THE SINK & SOURCE TERM
 =  324.3    (WHEN MIN. R.F.=1)  AT K=   2, I=   1, J= 120

 MAXIMUM STEPSIZE WHICH MEETS STABILITY CRITERION OF THE DISPERSION TERM
 =  20.29    (WHEN MIN. R.F.=1)  AT K=   1, I=   1, J=  31


     1 CALLS TO GCG PACKAGE FOR TRANSPORT TIME STEP   1 IN FLOW TIME STEP 427 STRESS PERIOD   1
     6 TOTAL ITERATIONS

 NO OUTPUT CONTROL FOR STRESS PERIOD    1   TIME STEP 427
 
 SOLVING FOR HEAD 
 FLOW MODEL IS TRANSIENT
 FLOW MODEL CONTAINS CONSTANT-HEAD CELLS


 MAXIMUM STEPSIZE DURING WHICH ANY PARTICLE CANNOT MOVE MORE THAN ONE CELL
 =  5.549    (WHEN MIN. R.F.=1)  AT K=   4, I=   1, J=  60

 MAXIMUM STEPSIZE WHICH MEETS STABILITY CRITERION OF THE ADVECTION TERM
 (FOR PURE FINITE-DIFFERENCE OPTION, MIXELM=0) 
 =  3.711    (WHEN MIN. R.F.=1)  AT K=   2, I=   1, J=  78


 TOTAL NUMBER OF POINT SOURCES/SINKS PRESENT IN THE FLOW MODEL =    62

 MAXIMUM STEPSIZE WHICH MEETS STABILITY CRITERION OF THE SINK & SOURCE TERM
 =  326.2    (WHEN MIN. R.F.=1)  AT K=   2, I=   1, J= 120

 MAXIMUM STEPSIZE WHICH MEETS STABILITY CRITERION OF THE DISPERSION TERM
 =  20.29    (WHEN MIN. R.F.=1)  AT K=   1, I=   1, J=  31
     1 CALLS TO GCG PACKAGE FOR TRANSPORT TIME STEP   2 IN FLOW TIME STEP 427 STRESS PERIOD   1
     6 TOTAL ITERATIONS
 
 SOLVING FOR HEAD 
 FLOW MODEL IS TRANSIENT
 FLOW MODEL CONTAINS CONSTANT-HEAD CELLS


 MAXIMUM STEPSIZE DURING WHICH ANY PARTICLE CANNOT MOVE MORE THAN ONE CELL
 =  5.548    (WHEN MIN. R.F.=1)  AT K=   4, I=   1, J=  60

 MAXIMUM STEPSIZE WHICH MEETS STABILITY CRITERION OF THE ADVECTION TERM
 (FOR PURE FINITE-DIFFERENCE OPTION, MIXELM=0) 
 =  3.787    (WHEN MIN. R.F.=1)  AT K=   2, I=   1, J=  43


 TOTAL NUMBER OF POINT SOURCES/SINKS PRESENT IN THE FLOW MODEL =    62

 MAXIMUM STEPSIZE WHICH MEETS STABILITY CRITERION OF THE SINK & SOURCE TERM
 =  335.5    (WHEN MIN. R.F.=1)  AT K=   2, I=   1, J= 120

 MAXIMUM STEPSIZE WHICH MEETS STABILITY CRITERION OF THE DISPERSION TERM
 =  20.29    (WHEN MIN. R.F.=1)  AT K=   1, I=   1, J=  31
     1 CALLS TO GCG PACKAGE FOR TRANSPORT TIME STEP   3 IN FLOW TIME STEP 427 STRESS PERIOD   1
     6 TOTAL ITERATIONS
 
 SOLVING FOR HEAD 
 FLOW MODEL IS TRANSIENT
 FLOW MODEL CONTAINS CONSTANT-HEAD CELLS


 MAXIMUM STEPSIZE DURING WHICH ANY PARTICLE CANNOT MOVE MORE THAN ONE CELL
 =  5.547    (WHEN MIN. R.F.=1)  AT K=   4, I=   1, J=  60

 MAXIMUM STEPSIZE WHICH MEETS STABILITY CRITERION OF THE ADVECTION TERM
 (FOR PURE FINITE-DIFFERENCE OPTION, MIXELM=0) 
 =  3.854    (WHEN MIN. R.F.=1)  AT K=   2, I=   1, J=  43


 TOTAL NUMBER OF POINT SOURCES/SINKS PRESENT IN THE FLOW MODEL =    62

 MAXIMUM STEPSIZE WHICH MEETS STABILITY CRITERION OF THE SINK & SOURCE TERM
 =  342.1    (WHEN MIN. R.F.=1)  AT K=   2, I=   1, J= 120

 MAXIMUM STEPSIZE WHICH MEETS STABILITY CRITERION OF THE DISPERSION TERM
 =  20.29    (WHEN MIN. R.F.=1)  AT K=   1, I=   1, J=  31
     1 CALLS TO GCG PACKAGE FOR TRANSPORT TIME STEP   4 IN FLOW TIME STEP 427 STRESS PERIOD   1
     5 TOTAL ITERATIONS
  MAXIMUM CONCENTRATION CHANGES FOR EACH ITERATION:
  MAX. CHANGE LAYER,ROW,COL MAX. CHANGE LAYER,ROW,COL MAX. CHANGE LAYER,ROW,COL MAX. CHANGE LAYER,ROW,COL MAX. CHANGE LAYER,ROW,COL
 ------------------------------------------------------------------------------------------------------------------------------------
   0.2001E-01 (  2,  1, 79)  0.6973E-03 (  2,  1, 77)  0.2265E-04 (  3,  1, 77)  0.6452E-06 (  3,  1, 41)  0.2560E-07 (  3,  1, 33)


                                          ================================================
                                                         FROM TIME =   4270.0     TO    4280.0    

 
 SOLVING FOR HEAD 
 FLOW MODEL IS TRANSIENT
 FLOW MODEL CONTAINS CONSTANT-HEAD CELLS


 MAXIMUM STEPSIZE DURING WHICH ANY PARTICLE CANNOT MOVE MORE THAN ONE CELL
 =  5.549    (WHEN MIN. R.F.=1)  AT K=   4, I=   1, J=  60

 MAXIMUM STEPSIZE WHICH MEETS STABILITY CRITERION OF THE ADVECTION TERM
 (FOR PURE FINITE-DIFFERENCE OPTION, MIXELM=0) 
 =  3.963    (WHEN MIN. R.F.=1)  AT K=   2, I=   1, J=  43


 TOTAL NUMBER OF POINT SOURCES/SINKS PRESENT IN THE FLOW MODEL =    62

 MAXIMUM STEPSIZE WHICH MEETS STABILITY CRITERION OF THE SINK & SOURCE TERM
 =  358.7    (WHEN MIN. R.F.=1)  AT K=   2, I=   1, J= 120

 MAXIMUM STEPSIZE WHICH MEETS STABILITY CRITERION OF THE DISPERSION TERM
 =  20.29    (WHEN MIN. R.F.=1)  AT K=   1, I=   1, J=  31


     1 CALLS TO GCG PACKAGE FOR TRANSPORT TIME STEP   1 IN FLOW TIME STEP 428 STRESS PERIOD   1
     6 TOTAL ITERATIONS

 NO OUTPUT CONTROL FOR STRESS PERIOD    1   TIME STEP 428
 
 SOLVING FOR HEAD 
 FLOW MODEL IS TRANSIENT
 FLOW MODEL CONTAINS CONSTANT-HEAD CELLS


 MAXIMUM STEPSIZE DURING WHICH ANY PARTICLE CANNOT MOVE MORE THAN ONE CELL
 =  5.548    (WHEN MIN. R.F.=1)  AT K=   4, I=   1, J=  60

 MAXIMUM STEPSIZE WHICH MEETS STABILITY CRITERION OF THE ADVECTION TERM
 (FOR PURE FINITE-DIFFERENCE OPTION, MIXELM=0) 
 =  3.875    (WHEN MIN. R.F.=1)  AT K=   2, I=   1, J=  77


 TOTAL NUMBER OF POINT SOURCES/SINKS PRESENT IN THE FLOW MODEL =    62

 MAXIMUM STEPSIZE WHICH MEETS STABILITY CRITERION OF THE SINK & SOURCE TERM
 =  351.7    (WHEN MIN. R.F.=1)  AT K=   2, I=   1, J= 120

 MAXIMUM STEPSIZE WHICH MEETS STABILITY CRITERION OF THE DISPERSION TERM
 =  20.29    (WHEN MIN. R.F.=1)  AT K=   1, I=   1, J=  31
     1 CALLS TO GCG PACKAGE FOR TRANSPORT TIME STEP   2 IN FLOW TIME STEP 428 STRESS PERIOD   1
     6 TOTAL ITERATIONS
 
 SOLVING FOR HEAD 
 FLOW MODEL IS TRANSIENT
 FLOW MODEL CONTAINS CONSTANT-HEAD CELLS


 MAXIMUM STEPSIZE DURING WHICH ANY PARTICLE CANNOT MOVE MORE THAN ONE CELL
 =  5.546    (WHEN MIN. R.F.=1)  AT K=   4, I=   1, J=  60

 MAXIMUM STEPSIZE WHICH MEETS STABILITY CRITERION OF THE ADVECTION TERM
 (FOR PURE FINITE-DIFFERENCE OPTION, MIXELM=0) 
 =  3.841    (WHEN MIN. R.F.=1)  AT K=   2, I=   1, J=  77


 TOTAL NUMBER OF POINT SOURCES/SINKS PRESENT IN THE FLOW MODEL =    62

 MAXIMUM STEPSIZE WHICH MEETS STABILITY CRITERION OF THE SINK & SOURCE TERM
 =  366.9    (WHEN MIN. R.F.=1)  AT K=   2, I=   1, J= 120

 MAXIMUM STEPSIZE WHICH MEETS STABILITY CRITERION OF THE DISPERSION TERM
 =  20.29    (WHEN MIN. R.F.=1)  AT K=   1, I=   1, J=  31
     1 CALLS TO GCG PACKAGE FOR TRANSPORT TIME STEP   3 IN FLOW TIME STEP 428 STRESS PERIOD   1
     6 TOTAL ITERATIONS
 
 SOLVING FOR HEAD 
 FLOW MODEL IS TRANSIENT
 FLOW MODEL CONTAINS CONSTANT-HEAD CELLS


 MAXIMUM STEPSIZE DURING WHICH ANY PARTICLE CANNOT MOVE MORE THAN ONE CELL
 =  5.546    (WHEN MIN. R.F.=1)  AT K=   4, I=   1, J=  60

 MAXIMUM STEPSIZE WHICH MEETS STABILITY CRITERION OF THE ADVECTION TERM
 (FOR PURE FINITE-DIFFERENCE OPTION, MIXELM=0) 
 =  3.913    (WHEN MIN. R.F.=1)  AT K=   2, I=   1, J=  77


 TOTAL NUMBER OF POINT SOURCES/SINKS PRESENT IN THE FLOW MODEL =    62

 MAXIMUM STEPSIZE WHICH MEETS STABILITY CRITERION OF THE SINK & SOURCE TERM
 =  375.3    (WHEN MIN. R.F.=1)  AT K=   2, I=   1, J= 120

 MAXIMUM STEPSIZE WHICH MEETS STABILITY CRITERION OF THE DISPERSION TERM
 =  20.29    (WHEN MIN. R.F.=1)  AT K=   1, I=   1, J=  31
     1 CALLS TO GCG PACKAGE FOR TRANSPORT TIME STEP   4 IN FLOW TIME STEP 428 STRESS PERIOD   1
     5 TOTAL ITERATIONS
  MAXIMUM CONCENTRATION CHANGES FOR EACH ITERATION:
  MAX. CHANGE LAYER,ROW,COL MAX. CHANGE LAYER,ROW,COL MAX. CHANGE LAYER,ROW,COL MAX. CHANGE LAYER,ROW,COL MAX. CHANGE LAYER,ROW,COL
 ------------------------------------------------------------------------------------------------------------------------------------
   0.1539E-01 (  2,  1, 78)  0.2898E-03 (  2,  1, 78)  0.7816E-05 (  2,  1, 79)  0.2337E-06 (  3,  1, 79)  0.4713E-08 (  4,  1, 78)


                                          ================================================
                                                         FROM TIME =   4280.0     TO    4290.0    

 
 SOLVING FOR HEAD 
 FLOW MODEL IS TRANSIENT
 FLOW MODEL CONTAINS CONSTANT-HEAD CELLS


 MAXIMUM STEPSIZE DURING WHICH ANY PARTICLE CANNOT MOVE MORE THAN ONE CELL
 =  5.549    (WHEN MIN. R.F.=1)  AT K=   4, I=   1, J=  60

 MAXIMUM STEPSIZE WHICH MEETS STABILITY CRITERION OF THE ADVECTION TERM
 (FOR PURE FINITE-DIFFERENCE OPTION, MIXELM=0) 
 =  3.951    (WHEN MIN. R.F.=1)  AT K=   2, I=   1, J=  44


 TOTAL NUMBER OF POINT SOURCES/SINKS PRESENT IN THE FLOW MODEL =    62

 MAXIMUM STEPSIZE WHICH MEETS STABILITY CRITERION OF THE SINK & SOURCE TERM
 =  396.3    (WHEN MIN. R.F.=1)  AT K=   2, I=   1, J= 120

 MAXIMUM STEPSIZE WHICH MEETS STABILITY CRITERION OF THE DISPERSION TERM
 =  20.29    (WHEN MIN. R.F.=1)  AT K=   1, I=   1, J=  31


     1 CALLS TO GCG PACKAGE FOR TRANSPORT TIME STEP   1 IN FLOW TIME STEP 429 STRESS PERIOD   1
     6 TOTAL ITERATIONS

 NO OUTPUT CONTROL FOR STRESS PERIOD    1   TIME STEP 429
 
 SOLVING FOR HEAD 
 FLOW MODEL IS TRANSIENT
 FLOW MODEL CONTAINS CONSTANT-HEAD CELLS


 MAXIMUM STEPSIZE DURING WHICH ANY PARTICLE CANNOT MOVE MORE THAN ONE CELL
 =  5.550    (WHEN MIN. R.F.=1)  AT K=   4, I=   1, J=  60

 MAXIMUM STEPSIZE WHICH MEETS STABILITY CRITERION OF THE ADVECTION TERM
 (FOR PURE FINITE-DIFFERENCE OPTION, MIXELM=0) 
 =  3.992    (WHEN MIN. R.F.=1)  AT K=   2, I=   1, J=  44


 TOTAL NUMBER OF POINT SOURCES/SINKS PRESENT IN THE FLOW MODEL =    62

 MAXIMUM STEPSIZE WHICH MEETS STABILITY CRITERION OF THE SINK & SOURCE TERM
 =  368.8    (WHEN MIN. R.F.=1)  AT K=   2, I=   1, J= 120

 MAXIMUM STEPSIZE WHICH MEETS STABILITY CRITERION OF THE DISPERSION TERM
 =  20.29    (WHEN MIN. R.F.=1)  AT K=   1, I=   1, J=  31
     1 CALLS TO GCG PACKAGE FOR TRANSPORT TIME STEP   2 IN FLOW TIME STEP 429 STRESS PERIOD   1
     6 TOTAL ITERATIONS
 
 SOLVING FOR HEAD 
 FLOW MODEL IS TRANSIENT
 FLOW MODEL CONTAINS CONSTANT-HEAD CELLS


 MAXIMUM STEPSIZE DURING WHICH ANY PARTICLE CANNOT MOVE MORE THAN ONE CELL
 =  5.551    (WHEN MIN. R.F.=1)  AT K=   4, I=   1, J=  60

 MAXIMUM STEPSIZE WHICH MEETS STABILITY CRITERION OF THE ADVECTION TERM
 (FOR PURE FINITE-DIFFERENCE OPTION, MIXELM=0) 
 =  4.137    (WHEN MIN. R.F.=1)  AT K=   2, I=   1, J=  44


 TOTAL NUMBER OF POINT SOURCES/SINKS PRESENT IN THE FLOW MODEL =    62

 MAXIMUM STEPSIZE WHICH MEETS STABILITY CRITERION OF THE SINK & SOURCE TERM
 =  362.6    (WHEN MIN. R.F.=1)  AT K=   2, I=   1, J= 120

 MAXIMUM STEPSIZE WHICH MEETS STABILITY CRITERION OF THE DISPERSION TERM
 =  20.29    (WHEN MIN. R.F.=1)  AT K=   1, I=   1, J=  31
     1 CALLS TO GCG PACKAGE FOR TRANSPORT TIME STEP   3 IN FLOW TIME STEP 429 STRESS PERIOD   1
     6 TOTAL ITERATIONS
 
 SOLVING FOR HEAD 
 FLOW MODEL IS TRANSIENT
 FLOW MODEL CONTAINS CONSTANT-HEAD CELLS


 MAXIMUM STEPSIZE DURING WHICH ANY PARTICLE CANNOT MOVE MORE THAN ONE CELL
 =  5.552    (WHEN MIN. R.F.=1)  AT K=   4, I=   1, J=  60

 MAXIMUM STEPSIZE WHICH MEETS STABILITY CRITERION OF THE ADVECTION TERM
 (FOR PURE FINITE-DIFFERENCE OPTION, MIXELM=0) 
 =  4.453    (WHEN MIN. R.F.=1)  AT K=   2, I=   1, J=  76


 TOTAL NUMBER OF POINT SOURCES/SINKS PRESENT IN THE FLOW MODEL =    62

 MAXIMUM STEPSIZE WHICH MEETS STABILITY CRITERION OF THE SINK & SOURCE TERM
 =  360.7    (WHEN MIN. R.F.=1)  AT K=   2, I=   1, J= 120

 MAXIMUM STEPSIZE WHICH MEETS STABILITY CRITERION OF THE DISPERSION TERM
 =  20.29    (WHEN MIN. R.F.=1)  AT K=   1, I=   1, J=  31
     1 CALLS TO GCG PACKAGE FOR TRANSPORT TIME STEP   4 IN FLOW TIME STEP 429 STRESS PERIOD   1
     5 TOTAL ITERATIONS
  MAXIMUM CONCENTRATION CHANGES FOR EACH ITERATION:
  MAX. CHANGE LAYER,ROW,COL MAX. CHANGE LAYER,ROW,COL MAX. CHANGE LAYER,ROW,COL MAX. CHANGE LAYER,ROW,COL MAX. CHANGE LAYER,ROW,COL
 ------------------------------------------------------------------------------------------------------------------------------------
   0.1212E-01 (  2,  1, 43)  0.2213E-03 (  2,  1, 76)  0.4083E-05 (  2,  1, 46)  0.1269E-06 (  3,  1, 42)  0.3113E-08 (  4,  1, 46)


                                          ================================================
                                                         FROM TIME =   4290.0     TO    4300.0    

 
 SOLVING FOR HEAD 
 FLOW MODEL IS TRANSIENT
 FLOW MODEL CONTAINS CONSTANT-HEAD CELLS


 MAXIMUM STEPSIZE DURING WHICH ANY PARTICLE CANNOT MOVE MORE THAN ONE CELL
 =  5.556    (WHEN MIN. R.F.=1)  AT K=   4, I=   1, J=  60

 MAXIMUM STEPSIZE WHICH MEETS STABILITY CRITERION OF THE ADVECTION TERM
 (FOR PURE FINITE-DIFFERENCE OPTION, MIXELM=0) 
 =  4.383    (WHEN MIN. R.F.=1)  AT K=   2, I=   1, J=  76


 TOTAL NUMBER OF POINT SOURCES/SINKS PRESENT IN THE FLOW MODEL =    62

 MAXIMUM STEPSIZE WHICH MEETS STABILITY CRITERION OF THE SINK & SOURCE TERM
 =  390.1    (WHEN MIN. R.F.=1)  AT K=   2, I=   1, J= 120

 MAXIMUM STEPSIZE WHICH MEETS STABILITY CRITERION OF THE DISPERSION TERM
 =  20.29    (WHEN MIN. R.F.=1)  AT K=   1, I=   1, J=  31


     1 CALLS TO GCG PACKAGE FOR TRANSPORT TIME STEP   1 IN FLOW TIME STEP 430 STRESS PERIOD   1
     6 TOTAL ITERATIONS

 NO OUTPUT CONTROL FOR STRESS PERIOD    1   TIME STEP 430
 
 SOLVING FOR HEAD 
 FLOW MODEL IS TRANSIENT
 FLOW MODEL CONTAINS CONSTANT-HEAD CELLS


 MAXIMUM STEPSIZE DURING WHICH ANY PARTICLE CANNOT MOVE MORE THAN ONE CELL
 =  5.557    (WHEN MIN. R.F.=1)  AT K=   4, I=   1, J=  60

 MAXIMUM STEPSIZE WHICH MEETS STABILITY CRITERION OF THE ADVECTION TERM
 (FOR PURE FINITE-DIFFERENCE OPTION, MIXELM=0) 
 =  4.274    (WHEN MIN. R.F.=1)  AT K=   2, I=   1, J=  76


 TOTAL NUMBER OF POINT SOURCES/SINKS PRESENT IN THE FLOW MODEL =    62

 MAXIMUM STEPSIZE WHICH MEETS STABILITY CRITERION OF THE SINK & SOURCE TERM
 =  358.1    (WHEN MIN. R.F.=1)  AT K=   2, I=   1, J= 120

 MAXIMUM STEPSIZE WHICH MEETS STABILITY CRITERION OF THE DISPERSION TERM
 =  20.29    (WHEN MIN. R.F.=1)  AT K=   1, I=   1, J=  31
     1 CALLS TO GCG PACKAGE FOR TRANSPORT TIME STEP   2 IN FLOW TIME STEP 430 STRESS PERIOD   1
     6 TOTAL ITERATIONS
 
 SOLVING FOR HEAD 
 FLOW MODEL IS TRANSIENT
 FLOW MODEL CONTAINS CONSTANT-HEAD CELLS


 MAXIMUM STEPSIZE DURING WHICH ANY PARTICLE CANNOT MOVE MORE THAN ONE CELL
 =  5.559    (WHEN MIN. R.F.=1)  AT K=   4, I=   1, J=  60

 MAXIMUM STEPSIZE WHICH MEETS STABILITY CRITERION OF THE ADVECTION TERM
 (FOR PURE FINITE-DIFFERENCE OPTION, MIXELM=0) 
 =  4.328    (WHEN MIN. R.F.=1)  AT K=   2, I=   1, J=  76


 TOTAL NUMBER OF POINT SOURCES/SINKS PRESENT IN THE FLOW MODEL =    62

 MAXIMUM STEPSIZE WHICH MEETS STABILITY CRITERION OF THE SINK & SOURCE TERM
 =  351.4    (WHEN MIN. R.F.=1)  AT K=   2, I=   1, J= 120

 MAXIMUM STEPSIZE WHICH MEETS STABILITY CRITERION OF THE DISPERSION TERM
 =  20.29    (WHEN MIN. R.F.=1)  AT K=   1, I=   1, J=  31
     1 CALLS TO GCG PACKAGE FOR TRANSPORT TIME STEP   3 IN FLOW TIME STEP 430 STRESS PERIOD   1
     6 TOTAL ITERATIONS
 
 SOLVING FOR HEAD 
 FLOW MODEL IS TRANSIENT
 FLOW MODEL CONTAINS CONSTANT-HEAD CELLS


 MAXIMUM STEPSIZE DURING WHICH ANY PARTICLE CANNOT MOVE MORE THAN ONE CELL
 =  5.563    (WHEN MIN. R.F.=1)  AT K=   4, I=   1, J=  60

 MAXIMUM STEPSIZE WHICH MEETS STABILITY CRITERION OF THE ADVECTION TERM
 (FOR PURE FINITE-DIFFERENCE OPTION, MIXELM=0) 
 =  4.369    (WHEN MIN. R.F.=1)  AT K=   2, I=   1, J=  45


 TOTAL NUMBER OF POINT SOURCES/SINKS PRESENT IN THE FLOW MODEL =    62

 MAXIMUM STEPSIZE WHICH MEETS STABILITY CRITERION OF THE SINK & SOURCE TERM
 =  352.1    (WHEN MIN. R.F.=1)  AT K=   2, I=   1, J= 120

 MAXIMUM STEPSIZE WHICH MEETS STABILITY CRITERION OF THE DISPERSION TERM
 =  20.29    (WHEN MIN. R.F.=1)  AT K=   1, I=   1, J=  31
     1 CALLS TO GCG PACKAGE FOR TRANSPORT TIME STEP   4 IN FLOW TIME STEP 430 STRESS PERIOD   1
     3 TOTAL ITERATIONS
  MAXIMUM CONCENTRATION CHANGES FOR EACH ITERATION:
  MAX. CHANGE LAYER,ROW,COL MAX. CHANGE LAYER,ROW,COL MAX. CHANGE LAYER,ROW,COL MAX. CHANGE LAYER,ROW,COL MAX. CHANGE LAYER,ROW,COL
 ------------------------------------------------------------------------------------------------------------------------------------
   0.2015E-02 (  2,  1, 77)  0.4541E-05 (  3,  1, 79)  0.2024E-07 (  2,  1, 78)


                                          ================================================
                                                         FROM TIME =   4300.0     TO    4310.0    

 
 SOLVING FOR HEAD 
 FLOW MODEL IS TRANSIENT
 FLOW MODEL CONTAINS CONSTANT-HEAD CELLS


 MAXIMUM STEPSIZE DURING WHICH ANY PARTICLE CANNOT MOVE MORE THAN ONE CELL
 =  5.564    (WHEN MIN. R.F.=1)  AT K=   4, I=   1, J=  60

 MAXIMUM STEPSIZE WHICH MEETS STABILITY CRITERION OF THE ADVECTION TERM
 (FOR PURE FINITE-DIFFERENCE OPTION, MIXELM=0) 
 =  4.374    (WHEN MIN. R.F.=1)  AT K=   2, I=   1, J=  45


 TOTAL NUMBER OF POINT SOURCES/SINKS PRESENT IN THE FLOW MODEL =    62

 MAXIMUM STEPSIZE WHICH MEETS STABILITY CRITERION OF THE SINK & SOURCE TERM
 =  351.8    (WHEN MIN. R.F.=1)  AT K=   2, I=   1, J= 120

 MAXIMUM STEPSIZE WHICH MEETS STABILITY CRITERION OF THE DISPERSION TERM
 =  20.29    (WHEN MIN. R.F.=1)  AT K=   1, I=   1, J=  31


     1 CALLS TO GCG PACKAGE FOR TRANSPORT TIME STEP   1 IN FLOW TIME STEP 431 STRESS PERIOD   1
     6 TOTAL ITERATIONS

 NO OUTPUT CONTROL FOR STRESS PERIOD    1   TIME STEP 431
 
 SOLVING FOR HEAD 
 FLOW MODEL IS TRANSIENT
 FLOW MODEL CONTAINS CONSTANT-HEAD CELLS


 MAXIMUM STEPSIZE DURING WHICH ANY PARTICLE CANNOT MOVE MORE THAN ONE CELL
 =  5.567    (WHEN MIN. R.F.=1)  AT K=  28, I=   1, J=  53

 MAXIMUM STEPSIZE WHICH MEETS STABILITY CRITERION OF THE ADVECTION TERM
 (FOR PURE FINITE-DIFFERENCE OPTION, MIXELM=0) 
 =  4.539    (WHEN MIN. R.F.=1)  AT K=   2, I=   1, J=  45


 TOTAL NUMBER OF POINT SOURCES/SINKS PRESENT IN THE FLOW MODEL =    62

 MAXIMUM STEPSIZE WHICH MEETS STABILITY CRITERION OF THE SINK & SOURCE TERM
 =  321.9    (WHEN MIN. R.F.=1)  AT K=   2, I=   1, J= 120

 MAXIMUM STEPSIZE WHICH MEETS STABILITY CRITERION OF THE DISPERSION TERM
 =  20.29    (WHEN MIN. R.F.=1)  AT K=   1, I=   1, J=  31
     1 CALLS TO GCG PACKAGE FOR TRANSPORT TIME STEP   2 IN FLOW TIME STEP 431 STRESS PERIOD   1
     6 TOTAL ITERATIONS
 
 SOLVING FOR HEAD 
 FLOW MODEL IS TRANSIENT
 FLOW MODEL CONTAINS CONSTANT-HEAD CELLS


 MAXIMUM STEPSIZE DURING WHICH ANY PARTICLE CANNOT MOVE MORE THAN ONE CELL
 =  5.567    (WHEN MIN. R.F.=1)  AT K=  28, I=   1, J=  53

 MAXIMUM STEPSIZE WHICH MEETS STABILITY CRITERION OF THE ADVECTION TERM
 (FOR PURE FINITE-DIFFERENCE OPTION, MIXELM=0) 
 =  4.393    (WHEN MIN. R.F.=1)  AT K=   2, I=   1, J=  75


 TOTAL NUMBER OF POINT SOURCES/SINKS PRESENT IN THE FLOW MODEL =    62

 MAXIMUM STEPSIZE WHICH MEETS STABILITY CRITERION OF THE SINK & SOURCE TERM
 =  309.6    (WHEN MIN. R.F.=1)  AT K=   2, I=   1, J= 120

 MAXIMUM STEPSIZE WHICH MEETS STABILITY CRITERION OF THE DISPERSION TERM
 =  20.29    (WHEN MIN. R.F.=1)  AT K=   1, I=   1, J=  31
     1 CALLS TO GCG PACKAGE FOR TRANSPORT TIME STEP   3 IN FLOW TIME STEP 431 STRESS PERIOD   1
     6 TOTAL ITERATIONS
 
 SOLVING FOR HEAD 
 FLOW MODEL IS TRANSIENT
 FLOW MODEL CONTAINS CONSTANT-HEAD CELLS


 MAXIMUM STEPSIZE DURING WHICH ANY PARTICLE CANNOT MOVE MORE THAN ONE CELL
 =  5.567    (WHEN MIN. R.F.=1)  AT K=  28, I=   1, J=  53

 MAXIMUM STEPSIZE WHICH MEETS STABILITY CRITERION OF THE ADVECTION TERM
 (FOR PURE FINITE-DIFFERENCE OPTION, MIXELM=0) 
 =  4.241    (WHEN MIN. R.F.=1)  AT K=   2, I=   1, J=  75


 TOTAL NUMBER OF POINT SOURCES/SINKS PRESENT IN THE FLOW MODEL =    62

 MAXIMUM STEPSIZE WHICH MEETS STABILITY CRITERION OF THE SINK & SOURCE TERM
 =  321.5    (WHEN MIN. R.F.=1)  AT K=   2, I=   1, J= 120

 MAXIMUM STEPSIZE WHICH MEETS STABILITY CRITERION OF THE DISPERSION TERM
 =  20.29    (WHEN MIN. R.F.=1)  AT K=   1, I=   1, J=  31
     1 CALLS TO GCG PACKAGE FOR TRANSPORT TIME STEP   4 IN FLOW TIME STEP 431 STRESS PERIOD   1
     3 TOTAL ITERATIONS
  MAXIMUM CONCENTRATION CHANGES FOR EACH ITERATION:
  MAX. CHANGE LAYER,ROW,COL MAX. CHANGE LAYER,ROW,COL MAX. CHANGE LAYER,ROW,COL MAX. CHANGE LAYER,ROW,COL MAX. CHANGE LAYER,ROW,COL
 ------------------------------------------------------------------------------------------------------------------------------------
   0.4810E-03 (  2,  1, 83)  0.2731E-06 (  2,  1, 83)  0.2203E-09 (  2,  1, 77)


                                          ================================================
                                                         FROM TIME =   4310.0     TO    4320.0    

 
 SOLVING FOR HEAD 
 FLOW MODEL IS TRANSIENT
 FLOW MODEL CONTAINS CONSTANT-HEAD CELLS


 MAXIMUM STEPSIZE DURING WHICH ANY PARTICLE CANNOT MOVE MORE THAN ONE CELL
 =  5.567    (WHEN MIN. R.F.=1)  AT K=  28, I=   1, J=  53

 MAXIMUM STEPSIZE WHICH MEETS STABILITY CRITERION OF THE ADVECTION TERM
 (FOR PURE FINITE-DIFFERENCE OPTION, MIXELM=0) 
 =  4.240    (WHEN MIN. R.F.=1)  AT K=   2, I=   1, J=  75


 TOTAL NUMBER OF POINT SOURCES/SINKS PRESENT IN THE FLOW MODEL =    62

 MAXIMUM STEPSIZE WHICH MEETS STABILITY CRITERION OF THE SINK & SOURCE TERM
 =  331.1    (WHEN MIN. R.F.=1)  AT K=   2, I=   1, J= 120

 MAXIMUM STEPSIZE WHICH MEETS STABILITY CRITERION OF THE DISPERSION TERM
 =  20.29    (WHEN MIN. R.F.=1)  AT K=   1, I=   1, J=  31


     1 CALLS TO GCG PACKAGE FOR TRANSPORT TIME STEP   1 IN FLOW TIME STEP 432 STRESS PERIOD   1
     6 TOTAL ITERATIONS

 NO OUTPUT CONTROL FOR STRESS PERIOD    1   TIME STEP 432
 
 SOLVING FOR HEAD 
 FLOW MODEL IS TRANSIENT
 FLOW MODEL CONTAINS CONSTANT-HEAD CELLS


 MAXIMUM STEPSIZE DURING WHICH ANY PARTICLE CANNOT MOVE MORE THAN ONE CELL
 =  5.443    (WHEN MIN. R.F.=1)  AT K=   4, I=   1, J=  74

 MAXIMUM STEPSIZE WHICH MEETS STABILITY CRITERION OF THE ADVECTION TERM
 (FOR PURE FINITE-DIFFERENCE OPTION, MIXELM=0) 
 =  4.116    (WHEN MIN. R.F.=1)  AT K=   2, I=   1, J=  81


 TOTAL NUMBER OF POINT SOURCES/SINKS PRESENT IN THE FLOW MODEL =    62

 MAXIMUM STEPSIZE WHICH MEETS STABILITY CRITERION OF THE SINK & SOURCE TERM
 =  299.3    (WHEN MIN. R.F.=1)  AT K=   2, I=   1, J= 120

 MAXIMUM STEPSIZE WHICH MEETS STABILITY CRITERION OF THE DISPERSION TERM
 =  20.29    (WHEN MIN. R.F.=1)  AT K=   1, I=   1, J=  31
     1 CALLS TO GCG PACKAGE FOR TRANSPORT TIME STEP   2 IN FLOW TIME STEP 432 STRESS PERIOD   1
     6 TOTAL ITERATIONS
 
 SOLVING FOR HEAD 
 FLOW MODEL IS TRANSIENT
 FLOW MODEL CONTAINS CONSTANT-HEAD CELLS


 MAXIMUM STEPSIZE DURING WHICH ANY PARTICLE CANNOT MOVE MORE THAN ONE CELL
 =  5.243    (WHEN MIN. R.F.=1)  AT K=   4, I=   1, J=  74

 MAXIMUM STEPSIZE WHICH MEETS STABILITY CRITERION OF THE ADVECTION TERM
 (FOR PURE FINITE-DIFFERENCE OPTION, MIXELM=0) 
 =  3.884    (WHEN MIN. R.F.=1)  AT K=   2, I=   1, J=  81


 TOTAL NUMBER OF POINT SOURCES/SINKS PRESENT IN THE FLOW MODEL =    62

 MAXIMUM STEPSIZE WHICH MEETS STABILITY CRITERION OF THE SINK & SOURCE TERM
 =  295.4    (WHEN MIN. R.F.=1)  AT K=   2, I=   1, J= 120

 MAXIMUM STEPSIZE WHICH MEETS STABILITY CRITERION OF THE DISPERSION TERM
 =  20.29    (WHEN MIN. R.F.=1)  AT K=   1, I=   1, J=  31
     1 CALLS TO GCG PACKAGE FOR TRANSPORT TIME STEP   3 IN FLOW TIME STEP 432 STRESS PERIOD   1
     6 TOTAL ITERATIONS
 
 SOLVING FOR HEAD 
 FLOW MODEL IS TRANSIENT
 FLOW MODEL CONTAINS CONSTANT-HEAD CELLS


 MAXIMUM STEPSIZE DURING WHICH ANY PARTICLE CANNOT MOVE MORE THAN ONE CELL
 =  5.104    (WHEN MIN. R.F.=1)  AT K=   4, I=   1, J=  74

 MAXIMUM STEPSIZE WHICH MEETS STABILITY CRITERION OF THE ADVECTION TERM
 (FOR PURE FINITE-DIFFERENCE OPTION, MIXELM=0) 
 =  3.873    (WHEN MIN. R.F.=1)  AT K=   2, I=   1, J=  81


 TOTAL NUMBER OF POINT SOURCES/SINKS PRESENT IN THE FLOW MODEL =    62

 MAXIMUM STEPSIZE WHICH MEETS STABILITY CRITERION OF THE SINK & SOURCE TERM
 =  292.1    (WHEN MIN. R.F.=1)  AT K=   2, I=   1, J= 120

 MAXIMUM STEPSIZE WHICH MEETS STABILITY CRITERION OF THE DISPERSION TERM
 =  20.29    (WHEN MIN. R.F.=1)  AT K=   1, I=   1, J=  31
     1 CALLS TO GCG PACKAGE FOR TRANSPORT TIME STEP   4 IN FLOW TIME STEP 432 STRESS PERIOD   1
     4 TOTAL ITERATIONS
  MAXIMUM CONCENTRATION CHANGES FOR EACH ITERATION:
  MAX. CHANGE LAYER,ROW,COL MAX. CHANGE LAYER,ROW,COL MAX. CHANGE LAYER,ROW,COL MAX. CHANGE LAYER,ROW,COL MAX. CHANGE LAYER,ROW,COL
 ------------------------------------------------------------------------------------------------------------------------------------
   0.7180E-02 (  2,  1, 82)  0.7060E-04 (  2,  1, 82)  0.7864E-06 (  2,  1, 83)  0.9340E-08 (  3,  1, 83)


                                          ================================================
                                                         FROM TIME =   4320.0     TO    4330.0    

 
 SOLVING FOR HEAD 
 FLOW MODEL IS TRANSIENT
 FLOW MODEL CONTAINS CONSTANT-HEAD CELLS


 MAXIMUM STEPSIZE DURING WHICH ANY PARTICLE CANNOT MOVE MORE THAN ONE CELL
 =  5.085    (WHEN MIN. R.F.=1)  AT K=   4, I=   1, J=  74

 MAXIMUM STEPSIZE WHICH MEETS STABILITY CRITERION OF THE ADVECTION TERM
 (FOR PURE FINITE-DIFFERENCE OPTION, MIXELM=0) 
 =  3.913    (WHEN MIN. R.F.=1)  AT K=   2, I=   1, J=  81


 TOTAL NUMBER OF POINT SOURCES/SINKS PRESENT IN THE FLOW MODEL =    62

 MAXIMUM STEPSIZE WHICH MEETS STABILITY CRITERION OF THE SINK & SOURCE TERM
 =  293.9    (WHEN MIN. R.F.=1)  AT K=   2, I=   1, J= 120

 MAXIMUM STEPSIZE WHICH MEETS STABILITY CRITERION OF THE DISPERSION TERM
 =  20.29    (WHEN MIN. R.F.=1)  AT K=   1, I=   1, J=  31


     1 CALLS TO GCG PACKAGE FOR TRANSPORT TIME STEP   1 IN FLOW TIME STEP 433 STRESS PERIOD   1
     6 TOTAL ITERATIONS

 NO OUTPUT CONTROL FOR STRESS PERIOD    1   TIME STEP 433
 
 SOLVING FOR HEAD 
 FLOW MODEL IS TRANSIENT
 FLOW MODEL CONTAINS CONSTANT-HEAD CELLS


 MAXIMUM STEPSIZE DURING WHICH ANY PARTICLE CANNOT MOVE MORE THAN ONE CELL
 =  5.006    (WHEN MIN. R.F.=1)  AT K=   4, I=   1, J=  74

 MAXIMUM STEPSIZE WHICH MEETS STABILITY CRITERION OF THE ADVECTION TERM
 (FOR PURE FINITE-DIFFERENCE OPTION, MIXELM=0) 
 =  4.053    (WHEN MIN. R.F.=1)  AT K=   2, I=   1, J=  80


 TOTAL NUMBER OF POINT SOURCES/SINKS PRESENT IN THE FLOW MODEL =    62

 MAXIMUM STEPSIZE WHICH MEETS STABILITY CRITERION OF THE SINK & SOURCE TERM
 =  269.9    (WHEN MIN. R.F.=1)  AT K=   2, I=   1, J= 120

 MAXIMUM STEPSIZE WHICH MEETS STABILITY CRITERION OF THE DISPERSION TERM
 =  20.29    (WHEN MIN. R.F.=1)  AT K=   1, I=   1, J=  31
     1 CALLS TO GCG PACKAGE FOR TRANSPORT TIME STEP   2 IN FLOW TIME STEP 433 STRESS PERIOD   1
     6 TOTAL ITERATIONS
 
 SOLVING FOR HEAD 
 FLOW MODEL IS TRANSIENT
 FLOW MODEL CONTAINS CONSTANT-HEAD CELLS


 MAXIMUM STEPSIZE DURING WHICH ANY PARTICLE CANNOT MOVE MORE THAN ONE CELL
 =  4.970    (WHEN MIN. R.F.=1)  AT K=   4, I=   1, J=  74

 MAXIMUM STEPSIZE WHICH MEETS STABILITY CRITERION OF THE ADVECTION TERM
 (FOR PURE FINITE-DIFFERENCE OPTION, MIXELM=0) 
 =  3.715    (WHEN MIN. R.F.=1)  AT K=   2, I=   1, J=  80


 TOTAL NUMBER OF POINT SOURCES/SINKS PRESENT IN THE FLOW MODEL =    62

 MAXIMUM STEPSIZE WHICH MEETS STABILITY CRITERION OF THE SINK & SOURCE TERM
 =  260.4    (WHEN MIN. R.F.=1)  AT K=   2, I=   1, J= 120

 MAXIMUM STEPSIZE WHICH MEETS STABILITY CRITERION OF THE DISPERSION TERM
 =  20.29    (WHEN MIN. R.F.=1)  AT K=   1, I=   1, J=  31
     1 CALLS TO GCG PACKAGE FOR TRANSPORT TIME STEP   3 IN FLOW TIME STEP 433 STRESS PERIOD   1
     6 TOTAL ITERATIONS
 
 SOLVING FOR HEAD 
 FLOW MODEL IS TRANSIENT
 FLOW MODEL CONTAINS CONSTANT-HEAD CELLS


 MAXIMUM STEPSIZE DURING WHICH ANY PARTICLE CANNOT MOVE MORE THAN ONE CELL
 =  4.974    (WHEN MIN. R.F.=1)  AT K=   4, I=   1, J=  74

 MAXIMUM STEPSIZE WHICH MEETS STABILITY CRITERION OF THE ADVECTION TERM
 (FOR PURE FINITE-DIFFERENCE OPTION, MIXELM=0) 
 =  3.594    (WHEN MIN. R.F.=1)  AT K=   2, I=   1, J=  80


 TOTAL NUMBER OF POINT SOURCES/SINKS PRESENT IN THE FLOW MODEL =    62

 MAXIMUM STEPSIZE WHICH MEETS STABILITY CRITERION OF THE SINK & SOURCE TERM
 =  260.2    (WHEN MIN. R.F.=1)  AT K=   2, I=   1, J= 120

 MAXIMUM STEPSIZE WHICH MEETS STABILITY CRITERION OF THE DISPERSION TERM
 =  20.29    (WHEN MIN. R.F.=1)  AT K=   1, I=   1, J=  31
     1 CALLS TO GCG PACKAGE FOR TRANSPORT TIME STEP   4 IN FLOW TIME STEP 433 STRESS PERIOD   1
     5 TOTAL ITERATIONS
  MAXIMUM CONCENTRATION CHANGES FOR EACH ITERATION:
  MAX. CHANGE LAYER,ROW,COL MAX. CHANGE LAYER,ROW,COL MAX. CHANGE LAYER,ROW,COL MAX. CHANGE LAYER,ROW,COL MAX. CHANGE LAYER,ROW,COL
 ------------------------------------------------------------------------------------------------------------------------------------
   0.1304E-01 (  2,  1, 81)  0.2445E-03 (  2,  1, 81)  0.6180E-05 (  3,  1, 79)  0.1794E-06 (  3,  1, 77)  0.3872E-08 (  4,  1, 77)


                                          ================================================
                                                         FROM TIME =   4330.0     TO    4340.0    

 
 SOLVING FOR HEAD 
 FLOW MODEL IS TRANSIENT
 FLOW MODEL CONTAINS CONSTANT-HEAD CELLS


 MAXIMUM STEPSIZE DURING WHICH ANY PARTICLE CANNOT MOVE MORE THAN ONE CELL
 =  4.990    (WHEN MIN. R.F.=1)  AT K=   4, I=   1, J=  74

 MAXIMUM STEPSIZE WHICH MEETS STABILITY CRITERION OF THE ADVECTION TERM
 (FOR PURE FINITE-DIFFERENCE OPTION, MIXELM=0) 
 =  3.601    (WHEN MIN. R.F.=1)  AT K=   2, I=   1, J=  80


 TOTAL NUMBER OF POINT SOURCES/SINKS PRESENT IN THE FLOW MODEL =    62

 MAXIMUM STEPSIZE WHICH MEETS STABILITY CRITERION OF THE SINK & SOURCE TERM
 =  289.3    (WHEN MIN. R.F.=1)  AT K=   2, I=   1, J= 120

 MAXIMUM STEPSIZE WHICH MEETS STABILITY CRITERION OF THE DISPERSION TERM
 =  20.29    (WHEN MIN. R.F.=1)  AT K=   1, I=   1, J=  31


     1 CALLS TO GCG PACKAGE FOR TRANSPORT TIME STEP   1 IN FLOW TIME STEP 434 STRESS PERIOD   1
     6 TOTAL ITERATIONS

 NO OUTPUT CONTROL FOR STRESS PERIOD    1   TIME STEP 434
 
 SOLVING FOR HEAD 
 FLOW MODEL IS TRANSIENT
 FLOW MODEL CONTAINS CONSTANT-HEAD CELLS


 MAXIMUM STEPSIZE DURING WHICH ANY PARTICLE CANNOT MOVE MORE THAN ONE CELL
 =  5.052    (WHEN MIN. R.F.=1)  AT K=   4, I=   1, J=  74

 MAXIMUM STEPSIZE WHICH MEETS STABILITY CRITERION OF THE ADVECTION TERM
 (FOR PURE FINITE-DIFFERENCE OPTION, MIXELM=0) 
 =  3.732    (WHEN MIN. R.F.=1)  AT K=   2, I=   1, J=  80


 TOTAL NUMBER OF POINT SOURCES/SINKS PRESENT IN THE FLOW MODEL =    62

 MAXIMUM STEPSIZE WHICH MEETS STABILITY CRITERION OF THE SINK & SOURCE TERM
 =  270.4    (WHEN MIN. R.F.=1)  AT K=   2, I=   1, J= 120

 MAXIMUM STEPSIZE WHICH MEETS STABILITY CRITERION OF THE DISPERSION TERM
 =  20.29    (WHEN MIN. R.F.=1)  AT K=   1, I=   1, J=  31
     1 CALLS TO GCG PACKAGE FOR TRANSPORT TIME STEP   2 IN FLOW TIME STEP 434 STRESS PERIOD   1
     6 TOTAL ITERATIONS
 
 SOLVING FOR HEAD 
 FLOW MODEL IS TRANSIENT
 FLOW MODEL CONTAINS CONSTANT-HEAD CELLS


 MAXIMUM STEPSIZE DURING WHICH ANY PARTICLE CANNOT MOVE MORE THAN ONE CELL
 =  5.100    (WHEN MIN. R.F.=1)  AT K=   5, I=   1, J=  74

 MAXIMUM STEPSIZE WHICH MEETS STABILITY CRITERION OF THE ADVECTION TERM
 (FOR PURE FINITE-DIFFERENCE OPTION, MIXELM=0) 
 =  3.810    (WHEN MIN. R.F.=1)  AT K=   2, I=   1, J=  41


 TOTAL NUMBER OF POINT SOURCES/SINKS PRESENT IN THE FLOW MODEL =    62

 MAXIMUM STEPSIZE WHICH MEETS STABILITY CRITERION OF THE SINK & SOURCE TERM
 =  270.4    (WHEN MIN. R.F.=1)  AT K=   2, I=   1, J= 120

 MAXIMUM STEPSIZE WHICH MEETS STABILITY CRITERION OF THE DISPERSION TERM
 =  20.29    (WHEN MIN. R.F.=1)  AT K=   1, I=   1, J=  31
     1 CALLS TO GCG PACKAGE FOR TRANSPORT TIME STEP   3 IN FLOW TIME STEP 434 STRESS PERIOD   1
     6 TOTAL ITERATIONS
 
 SOLVING FOR HEAD 
 FLOW MODEL IS TRANSIENT
 FLOW MODEL CONTAINS CONSTANT-HEAD CELLS


 MAXIMUM STEPSIZE DURING WHICH ANY PARTICLE CANNOT MOVE MORE THAN ONE CELL
 =  5.171    (WHEN MIN. R.F.=1)  AT K=   5, I=   1, J=  74

 MAXIMUM STEPSIZE WHICH MEETS STABILITY CRITERION OF THE ADVECTION TERM
 (FOR PURE FINITE-DIFFERENCE OPTION, MIXELM=0) 
 =  3.645    (WHEN MIN. R.F.=1)  AT K=   2, I=   1, J=  79


 TOTAL NUMBER OF POINT SOURCES/SINKS PRESENT IN THE FLOW MODEL =    62

 MAXIMUM STEPSIZE WHICH MEETS STABILITY CRITERION OF THE SINK & SOURCE TERM
 =  271.1    (WHEN MIN. R.F.=1)  AT K=   2, I=   1, J= 120

 MAXIMUM STEPSIZE WHICH MEETS STABILITY CRITERION OF THE DISPERSION TERM
 =  20.29    (WHEN MIN. R.F.=1)  AT K=   1, I=   1, J=  31
     1 CALLS TO GCG PACKAGE FOR TRANSPORT TIME STEP   4 IN FLOW TIME STEP 434 STRESS PERIOD   1
     5 TOTAL ITERATIONS
  MAXIMUM CONCENTRATION CHANGES FOR EACH ITERATION:
  MAX. CHANGE LAYER,ROW,COL MAX. CHANGE LAYER,ROW,COL MAX. CHANGE LAYER,ROW,COL MAX. CHANGE LAYER,ROW,COL MAX. CHANGE LAYER,ROW,COL
 ------------------------------------------------------------------------------------------------------------------------------------
   0.1961E-01 (  2,  1, 81)  0.6051E-03 (  2,  1, 79)  0.2103E-04 (  3,  1, 42)  0.1262E-05 (  3,  1, 76)  0.3800E-07 (  4,  1, 76)


                                          ================================================
                                                         FROM TIME =   4340.0     TO    4350.0    

 
 SOLVING FOR HEAD 
 FLOW MODEL IS TRANSIENT
 FLOW MODEL CONTAINS CONSTANT-HEAD CELLS


 MAXIMUM STEPSIZE DURING WHICH ANY PARTICLE CANNOT MOVE MORE THAN ONE CELL
 =  5.236    (WHEN MIN. R.F.=1)  AT K=   5, I=   1, J=  74

 MAXIMUM STEPSIZE WHICH MEETS STABILITY CRITERION OF THE ADVECTION TERM
 (FOR PURE FINITE-DIFFERENCE OPTION, MIXELM=0) 
 =  3.575    (WHEN MIN. R.F.=1)  AT K=   2, I=   1, J=  79


 TOTAL NUMBER OF POINT SOURCES/SINKS PRESENT IN THE FLOW MODEL =    62

 MAXIMUM STEPSIZE WHICH MEETS STABILITY CRITERION OF THE SINK & SOURCE TERM
 =  281.4    (WHEN MIN. R.F.=1)  AT K=   2, I=   1, J= 120

 MAXIMUM STEPSIZE WHICH MEETS STABILITY CRITERION OF THE DISPERSION TERM
 =  20.29    (WHEN MIN. R.F.=1)  AT K=   1, I=   1, J=  31


     1 CALLS TO GCG PACKAGE FOR TRANSPORT TIME STEP   1 IN FLOW TIME STEP 435 STRESS PERIOD   1
     6 TOTAL ITERATIONS

 NO OUTPUT CONTROL FOR STRESS PERIOD    1   TIME STEP 435
 
 SOLVING FOR HEAD 
 FLOW MODEL IS TRANSIENT
 FLOW MODEL CONTAINS CONSTANT-HEAD CELLS


 MAXIMUM STEPSIZE DURING WHICH ANY PARTICLE CANNOT MOVE MORE THAN ONE CELL
 =  5.357    (WHEN MIN. R.F.=1)  AT K=   5, I=   1, J=  74

 MAXIMUM STEPSIZE WHICH MEETS STABILITY CRITERION OF THE ADVECTION TERM
 (FOR PURE FINITE-DIFFERENCE OPTION, MIXELM=0) 
 =  3.559    (WHEN MIN. R.F.=1)  AT K=   2, I=   1, J=  79


 TOTAL NUMBER OF POINT SOURCES/SINKS PRESENT IN THE FLOW MODEL =    62

 MAXIMUM STEPSIZE WHICH MEETS STABILITY CRITERION OF THE SINK & SOURCE TERM
 =  276.9    (WHEN MIN. R.F.=1)  AT K=   2, I=   1, J= 120

 MAXIMUM STEPSIZE WHICH MEETS STABILITY CRITERION OF THE DISPERSION TERM
 =  20.29    (WHEN MIN. R.F.=1)  AT K=   1, I=   1, J=  31
     1 CALLS TO GCG PACKAGE FOR TRANSPORT TIME STEP   2 IN FLOW TIME STEP 435 STRESS PERIOD   1
     6 TOTAL ITERATIONS
 
 SOLVING FOR HEAD 
 FLOW MODEL IS TRANSIENT
 FLOW MODEL CONTAINS CONSTANT-HEAD CELLS


 MAXIMUM STEPSIZE DURING WHICH ANY PARTICLE CANNOT MOVE MORE THAN ONE CELL
 =  5.445    (WHEN MIN. R.F.=1)  AT K=   6, I=   1, J=  74

 MAXIMUM STEPSIZE WHICH MEETS STABILITY CRITERION OF THE ADVECTION TERM
 (FOR PURE FINITE-DIFFERENCE OPTION, MIXELM=0) 
 =  3.667    (WHEN MIN. R.F.=1)  AT K=   2, I=   1, J=  79


 TOTAL NUMBER OF POINT SOURCES/SINKS PRESENT IN THE FLOW MODEL =    62

 MAXIMUM STEPSIZE WHICH MEETS STABILITY CRITERION OF THE SINK & SOURCE TERM
 =  283.8    (WHEN MIN. R.F.=1)  AT K=   2, I=   1, J= 120

 MAXIMUM STEPSIZE WHICH MEETS STABILITY CRITERION OF THE DISPERSION TERM
 =  20.29    (WHEN MIN. R.F.=1)  AT K=   1, I=   1, J=  31
     1 CALLS TO GCG PACKAGE FOR TRANSPORT TIME STEP   3 IN FLOW TIME STEP 435 STRESS PERIOD   1
     6 TOTAL ITERATIONS
 
 SOLVING FOR HEAD 
 FLOW MODEL IS TRANSIENT
 FLOW MODEL CONTAINS CONSTANT-HEAD CELLS


 MAXIMUM STEPSIZE DURING WHICH ANY PARTICLE CANNOT MOVE MORE THAN ONE CELL
 =  5.551    (WHEN MIN. R.F.=1)  AT K=   6, I=   1, J=  74

 MAXIMUM STEPSIZE WHICH MEETS STABILITY CRITERION OF THE ADVECTION TERM
 (FOR PURE FINITE-DIFFERENCE OPTION, MIXELM=0) 
 =  3.730    (WHEN MIN. R.F.=1)  AT K=   2, I=   1, J=  42


 TOTAL NUMBER OF POINT SOURCES/SINKS PRESENT IN THE FLOW MODEL =    62

 MAXIMUM STEPSIZE WHICH MEETS STABILITY CRITERION OF THE SINK & SOURCE TERM
 =  288.4    (WHEN MIN. R.F.=1)  AT K=   2, I=   1, J= 120

 MAXIMUM STEPSIZE WHICH MEETS STABILITY CRITERION OF THE DISPERSION TERM
 =  20.29    (WHEN MIN. R.F.=1)  AT K=   1, I=   1, J=  31
     1 CALLS TO GCG PACKAGE FOR TRANSPORT TIME STEP   4 IN FLOW TIME STEP 435 STRESS PERIOD   1
     5 TOTAL ITERATIONS
  MAXIMUM CONCENTRATION CHANGES FOR EACH ITERATION:
  MAX. CHANGE LAYER,ROW,COL MAX. CHANGE LAYER,ROW,COL MAX. CHANGE LAYER,ROW,COL MAX. CHANGE LAYER,ROW,COL MAX. CHANGE LAYER,ROW,COL
 ------------------------------------------------------------------------------------------------------------------------------------
   0.2321E-01 (  2,  1, 80)  0.7615E-03 (  2,  1, 78)  0.2900E-04 (  3,  1, 78)  0.1767E-05 (  3,  1, 45)  0.5971E-07 (  4,  1, 45)


                                          ================================================
                                                         FROM TIME =   4350.0     TO    4360.0    

 
 SOLVING FOR HEAD 
 FLOW MODEL IS TRANSIENT
 FLOW MODEL CONTAINS CONSTANT-HEAD CELLS


 MAXIMUM STEPSIZE DURING WHICH ANY PARTICLE CANNOT MOVE MORE THAN ONE CELL
 =  5.619    (WHEN MIN. R.F.=1)  AT K=  28, I=   1, J=  53

 MAXIMUM STEPSIZE WHICH MEETS STABILITY CRITERION OF THE ADVECTION TERM
 (FOR PURE FINITE-DIFFERENCE OPTION, MIXELM=0) 
 =  3.722    (WHEN MIN. R.F.=1)  AT K=   2, I=   1, J=  42


 TOTAL NUMBER OF POINT SOURCES/SINKS PRESENT IN THE FLOW MODEL =    62

 MAXIMUM STEPSIZE WHICH MEETS STABILITY CRITERION OF THE SINK & SOURCE TERM
 =  297.8    (WHEN MIN. R.F.=1)  AT K=   2, I=   1, J= 120

 MAXIMUM STEPSIZE WHICH MEETS STABILITY CRITERION OF THE DISPERSION TERM
 =  20.29    (WHEN MIN. R.F.=1)  AT K=   1, I=   1, J=  31


     1 CALLS TO GCG PACKAGE FOR TRANSPORT TIME STEP   1 IN FLOW TIME STEP 436 STRESS PERIOD   1
     6 TOTAL ITERATIONS

 NO OUTPUT CONTROL FOR STRESS PERIOD    1   TIME STEP 436
 
 SOLVING FOR HEAD 
 FLOW MODEL IS TRANSIENT
 FLOW MODEL CONTAINS CONSTANT-HEAD CELLS


 MAXIMUM STEPSIZE DURING WHICH ANY PARTICLE CANNOT MOVE MORE THAN ONE CELL
 =  5.622    (WHEN MIN. R.F.=1)  AT K=  28, I=   1, J=  53

 MAXIMUM STEPSIZE WHICH MEETS STABILITY CRITERION OF THE ADVECTION TERM
 (FOR PURE FINITE-DIFFERENCE OPTION, MIXELM=0) 
 =  3.721    (WHEN MIN. R.F.=1)  AT K=   2, I=   1, J=  78


 TOTAL NUMBER OF POINT SOURCES/SINKS PRESENT IN THE FLOW MODEL =    62

 MAXIMUM STEPSIZE WHICH MEETS STABILITY CRITERION OF THE SINK & SOURCE TERM
 =  293.3    (WHEN MIN. R.F.=1)  AT K=   2, I=   1, J= 120

 MAXIMUM STEPSIZE WHICH MEETS STABILITY CRITERION OF THE DISPERSION TERM
 =  20.29    (WHEN MIN. R.F.=1)  AT K=   1, I=   1, J=  31
     1 CALLS TO GCG PACKAGE FOR TRANSPORT TIME STEP   2 IN FLOW TIME STEP 436 STRESS PERIOD   1
     6 TOTAL ITERATIONS
 
 SOLVING FOR HEAD 
 FLOW MODEL IS TRANSIENT
 FLOW MODEL CONTAINS CONSTANT-HEAD CELLS


 MAXIMUM STEPSIZE DURING WHICH ANY PARTICLE CANNOT MOVE MORE THAN ONE CELL
 =  5.624    (WHEN MIN. R.F.=1)  AT K=  28, I=   1, J=  53

 MAXIMUM STEPSIZE WHICH MEETS STABILITY CRITERION OF THE ADVECTION TERM
 (FOR PURE FINITE-DIFFERENCE OPTION, MIXELM=0) 
 =  3.645    (WHEN MIN. R.F.=1)  AT K=   2, I=   1, J=  78


 TOTAL NUMBER OF POINT SOURCES/SINKS PRESENT IN THE FLOW MODEL =    62

 MAXIMUM STEPSIZE WHICH MEETS STABILITY CRITERION OF THE SINK & SOURCE TERM
 =  295.5    (WHEN MIN. R.F.=1)  AT K=   2, I=   1, J= 120

 MAXIMUM STEPSIZE WHICH MEETS STABILITY CRITERION OF THE DISPERSION TERM
 =  20.29    (WHEN MIN. R.F.=1)  AT K=   1, I=   1, J=  31
     1 CALLS TO GCG PACKAGE FOR TRANSPORT TIME STEP   3 IN FLOW TIME STEP 436 STRESS PERIOD   1
     6 TOTAL ITERATIONS
 
 SOLVING FOR HEAD 
 FLOW MODEL IS TRANSIENT
 FLOW MODEL CONTAINS CONSTANT-HEAD CELLS


 MAXIMUM STEPSIZE DURING WHICH ANY PARTICLE CANNOT MOVE MORE THAN ONE CELL
 =  5.623    (WHEN MIN. R.F.=1)  AT K=   4, I=   1, J=  60

 MAXIMUM STEPSIZE WHICH MEETS STABILITY CRITERION OF THE ADVECTION TERM
 (FOR PURE FINITE-DIFFERENCE OPTION, MIXELM=0) 
 =  3.680    (WHEN MIN. R.F.=1)  AT K=   2, I=   1, J=  78


 TOTAL NUMBER OF POINT SOURCES/SINKS PRESENT IN THE FLOW MODEL =    62

 MAXIMUM STEPSIZE WHICH MEETS STABILITY CRITERION OF THE SINK & SOURCE TERM
 =  302.0    (WHEN MIN. R.F.=1)  AT K=   2, I=   1, J= 120

 MAXIMUM STEPSIZE WHICH MEETS STABILITY CRITERION OF THE DISPERSION TERM
 =  20.29    (WHEN MIN. R.F.=1)  AT K=   1, I=   1, J=  31
     1 CALLS TO GCG PACKAGE FOR TRANSPORT TIME STEP   4 IN FLOW TIME STEP 436 STRESS PERIOD   1
     5 TOTAL ITERATIONS
  MAXIMUM CONCENTRATION CHANGES FOR EACH ITERATION:
  MAX. CHANGE LAYER,ROW,COL MAX. CHANGE LAYER,ROW,COL MAX. CHANGE LAYER,ROW,COL MAX. CHANGE LAYER,ROW,COL MAX. CHANGE LAYER,ROW,COL
 ------------------------------------------------------------------------------------------------------------------------------------
   0.2007E-01 (  2,  1, 79)  0.4786E-03 (  2,  1, 79)  0.1540E-04 (  2,  1, 80)  0.6013E-06 (  3,  1, 80)  0.2050E-07 (  4,  1, 79)


                                          ================================================
                                                         FROM TIME =   4360.0     TO    4370.0    

 
 SOLVING FOR HEAD 
 FLOW MODEL IS TRANSIENT
 FLOW MODEL CONTAINS CONSTANT-HEAD CELLS


 MAXIMUM STEPSIZE DURING WHICH ANY PARTICLE CANNOT MOVE MORE THAN ONE CELL
 =  5.625    (WHEN MIN. R.F.=1)  AT K=   4, I=   1, J=  60

 MAXIMUM STEPSIZE WHICH MEETS STABILITY CRITERION OF THE ADVECTION TERM
 (FOR PURE FINITE-DIFFERENCE OPTION, MIXELM=0) 
 =  3.763    (WHEN MIN. R.F.=1)  AT K=   2, I=   1, J=  78


 TOTAL NUMBER OF POINT SOURCES/SINKS PRESENT IN THE FLOW MODEL =    62

 MAXIMUM STEPSIZE WHICH MEETS STABILITY CRITERION OF THE SINK & SOURCE TERM
 =  316.3    (WHEN MIN. R.F.=1)  AT K=   2, I=   1, J= 120

 MAXIMUM STEPSIZE WHICH MEETS STABILITY CRITERION OF THE DISPERSION TERM
 =  20.29    (WHEN MIN. R.F.=1)  AT K=   1, I=   1, J=  31


     1 CALLS TO GCG PACKAGE FOR TRANSPORT TIME STEP   1 IN FLOW TIME STEP 437 STRESS PERIOD   1
     6 TOTAL ITERATIONS

 NO OUTPUT CONTROL FOR STRESS PERIOD    1   TIME STEP 437
 
 SOLVING FOR HEAD 
 FLOW MODEL IS TRANSIENT
 FLOW MODEL CONTAINS CONSTANT-HEAD CELLS


 MAXIMUM STEPSIZE DURING WHICH ANY PARTICLE CANNOT MOVE MORE THAN ONE CELL
 =  5.624    (WHEN MIN. R.F.=1)  AT K=   4, I=   1, J=  60

 MAXIMUM STEPSIZE WHICH MEETS STABILITY CRITERION OF THE ADVECTION TERM
 (FOR PURE FINITE-DIFFERENCE OPTION, MIXELM=0) 
 =  3.773    (WHEN MIN. R.F.=1)  AT K=   2, I=   1, J=  43


 TOTAL NUMBER OF POINT SOURCES/SINKS PRESENT IN THE FLOW MODEL =    62

 MAXIMUM STEPSIZE WHICH MEETS STABILITY CRITERION OF THE SINK & SOURCE TERM
 =  311.9    (WHEN MIN. R.F.=1)  AT K=   2, I=   1, J= 120

 MAXIMUM STEPSIZE WHICH MEETS STABILITY CRITERION OF THE DISPERSION TERM
 =  20.29    (WHEN MIN. R.F.=1)  AT K=   1, I=   1, J=  31
     1 CALLS TO GCG PACKAGE FOR TRANSPORT TIME STEP   2 IN FLOW TIME STEP 437 STRESS PERIOD   1
     6 TOTAL ITERATIONS
 
 SOLVING FOR HEAD 
 FLOW MODEL IS TRANSIENT
 FLOW MODEL CONTAINS CONSTANT-HEAD CELLS


 MAXIMUM STEPSIZE DURING WHICH ANY PARTICLE CANNOT MOVE MORE THAN ONE CELL
 =  5.621    (WHEN MIN. R.F.=1)  AT K=   4, I=   1, J=  60

 MAXIMUM STEPSIZE WHICH MEETS STABILITY CRITERION OF THE ADVECTION TERM
 (FOR PURE FINITE-DIFFERENCE OPTION, MIXELM=0) 
 =  3.800    (WHEN MIN. R.F.=1)  AT K=   2, I=   1, J=  43


 TOTAL NUMBER OF POINT SOURCES/SINKS PRESENT IN THE FLOW MODEL =    62

 MAXIMUM STEPSIZE WHICH MEETS STABILITY CRITERION OF THE SINK & SOURCE TERM
 =  319.9    (WHEN MIN. R.F.=1)  AT K=   2, I=   1, J= 120

 MAXIMUM STEPSIZE WHICH MEETS STABILITY CRITERION OF THE DISPERSION TERM
 =  20.29    (WHEN MIN. R.F.=1)  AT K=   1, I=   1, J=  31
     1 CALLS TO GCG PACKAGE FOR TRANSPORT TIME STEP   3 IN FLOW TIME STEP 437 STRESS PERIOD   1
     6 TOTAL ITERATIONS
 
 SOLVING FOR HEAD 
 FLOW MODEL IS TRANSIENT
 FLOW MODEL CONTAINS CONSTANT-HEAD CELLS


 MAXIMUM STEPSIZE DURING WHICH ANY PARTICLE CANNOT MOVE MORE THAN ONE CELL
 =  5.619    (WHEN MIN. R.F.=1)  AT K=   4, I=   1, J=  60

 MAXIMUM STEPSIZE WHICH MEETS STABILITY CRITERION OF THE ADVECTION TERM
 (FOR PURE FINITE-DIFFERENCE OPTION, MIXELM=0) 
 =  3.933    (WHEN MIN. R.F.=1)  AT K=   2, I=   1, J=  43


 TOTAL NUMBER OF POINT SOURCES/SINKS PRESENT IN THE FLOW MODEL =    62

 MAXIMUM STEPSIZE WHICH MEETS STABILITY CRITERION OF THE SINK & SOURCE TERM
 =  322.5    (WHEN MIN. R.F.=1)  AT K=   2, I=   1, J= 120

 MAXIMUM STEPSIZE WHICH MEETS STABILITY CRITERION OF THE DISPERSION TERM
 =  20.29    (WHEN MIN. R.F.=1)  AT K=   1, I=   1, J=  31
     1 CALLS TO GCG PACKAGE FOR TRANSPORT TIME STEP   4 IN FLOW TIME STEP 437 STRESS PERIOD   1
     5 TOTAL ITERATIONS
  MAXIMUM CONCENTRATION CHANGES FOR EACH ITERATION:
  MAX. CHANGE LAYER,ROW,COL MAX. CHANGE LAYER,ROW,COL MAX. CHANGE LAYER,ROW,COL MAX. CHANGE LAYER,ROW,COL MAX. CHANGE LAYER,ROW,COL
 ------------------------------------------------------------------------------------------------------------------------------------
   0.1745E-01 (  2,  1, 42)  0.5191E-03 (  2,  1, 77)  0.1441E-04 (  3,  1, 77)  0.4756E-06 (  3,  1, 41)  0.1606E-07 (  3,  1, 33)


                                          ================================================
                                                         FROM TIME =   4370.0     TO    4380.0    

 
 SOLVING FOR HEAD 
 FLOW MODEL IS TRANSIENT
 FLOW MODEL CONTAINS CONSTANT-HEAD CELLS


 MAXIMUM STEPSIZE DURING WHICH ANY PARTICLE CANNOT MOVE MORE THAN ONE CELL
 =  5.620    (WHEN MIN. R.F.=1)  AT K=   4, I=   1, J=  60

 MAXIMUM STEPSIZE WHICH MEETS STABILITY CRITERION OF THE ADVECTION TERM
 (FOR PURE FINITE-DIFFERENCE OPTION, MIXELM=0) 
 =  3.875    (WHEN MIN. R.F.=1)  AT K=   2, I=   1, J=  77


 TOTAL NUMBER OF POINT SOURCES/SINKS PRESENT IN THE FLOW MODEL =    62

 MAXIMUM STEPSIZE WHICH MEETS STABILITY CRITERION OF THE SINK & SOURCE TERM
 =  335.8    (WHEN MIN. R.F.=1)  AT K=   2, I=   1, J= 120

 MAXIMUM STEPSIZE WHICH MEETS STABILITY CRITERION OF THE DISPERSION TERM
 =  20.29    (WHEN MIN. R.F.=1)  AT K=   1, I=   1, J=  31


     1 CALLS TO GCG PACKAGE FOR TRANSPORT TIME STEP   1 IN FLOW TIME STEP 438 STRESS PERIOD   1
     6 TOTAL ITERATIONS

 NO OUTPUT CONTROL FOR STRESS PERIOD    1   TIME STEP 438
 
 SOLVING FOR HEAD 
 FLOW MODEL IS TRANSIENT
 FLOW MODEL CONTAINS CONSTANT-HEAD CELLS


 MAXIMUM STEPSIZE DURING WHICH ANY PARTICLE CANNOT MOVE MORE THAN ONE CELL
 =  5.617    (WHEN MIN. R.F.=1)  AT K=   4, I=   1, J=  60

 MAXIMUM STEPSIZE WHICH MEETS STABILITY CRITERION OF THE ADVECTION TERM
 (FOR PURE FINITE-DIFFERENCE OPTION, MIXELM=0) 
 =  3.851    (WHEN MIN. R.F.=1)  AT K=   2, I=   1, J=  77


 TOTAL NUMBER OF POINT SOURCES/SINKS PRESENT IN THE FLOW MODEL =    62

 MAXIMUM STEPSIZE WHICH MEETS STABILITY CRITERION OF THE SINK & SOURCE TERM
 =  322.3    (WHEN MIN. R.F.=1)  AT K=   2, I=   1, J= 120

 MAXIMUM STEPSIZE WHICH MEETS STABILITY CRITERION OF THE DISPERSION TERM
 =  20.29    (WHEN MIN. R.F.=1)  AT K=   1, I=   1, J=  31
     1 CALLS TO GCG PACKAGE FOR TRANSPORT TIME STEP   2 IN FLOW TIME STEP 438 STRESS PERIOD   1
     6 TOTAL ITERATIONS
 
 SOLVING FOR HEAD 
 FLOW MODEL IS TRANSIENT
 FLOW MODEL CONTAINS CONSTANT-HEAD CELLS


 MAXIMUM STEPSIZE DURING WHICH ANY PARTICLE CANNOT MOVE MORE THAN ONE CELL
 =  5.613    (WHEN MIN. R.F.=1)  AT K=   4, I=   1, J=  60

 MAXIMUM STEPSIZE WHICH MEETS STABILITY CRITERION OF THE ADVECTION TERM
 (FOR PURE FINITE-DIFFERENCE OPTION, MIXELM=0) 
 =  3.936    (WHEN MIN. R.F.=1)  AT K=   2, I=   1, J=  77


 TOTAL NUMBER OF POINT SOURCES/SINKS PRESENT IN THE FLOW MODEL =    62

 MAXIMUM STEPSIZE WHICH MEETS STABILITY CRITERION OF THE SINK & SOURCE TERM
 =  321.8    (WHEN MIN. R.F.=1)  AT K=   2, I=   1, J= 120

 MAXIMUM STEPSIZE WHICH MEETS STABILITY CRITERION OF THE DISPERSION TERM
 =  20.29    (WHEN MIN. R.F.=1)  AT K=   1, I=   1, J=  31
     1 CALLS TO GCG PACKAGE FOR TRANSPORT TIME STEP   3 IN FLOW TIME STEP 438 STRESS PERIOD   1
     6 TOTAL ITERATIONS
 
 SOLVING FOR HEAD 
 FLOW MODEL IS TRANSIENT
 FLOW MODEL CONTAINS CONSTANT-HEAD CELLS


 MAXIMUM STEPSIZE DURING WHICH ANY PARTICLE CANNOT MOVE MORE THAN ONE CELL
 =  5.609    (WHEN MIN. R.F.=1)  AT K=   4, I=   1, J=  60

 MAXIMUM STEPSIZE WHICH MEETS STABILITY CRITERION OF THE ADVECTION TERM
 (FOR PURE FINITE-DIFFERENCE OPTION, MIXELM=0) 
 =  3.944    (WHEN MIN. R.F.=1)  AT K=   2, I=   1, J=  44


 TOTAL NUMBER OF POINT SOURCES/SINKS PRESENT IN THE FLOW MODEL =    62

 MAXIMUM STEPSIZE WHICH MEETS STABILITY CRITERION OF THE SINK & SOURCE TERM
 =  319.9    (WHEN MIN. R.F.=1)  AT K=   2, I=   1, J= 120

 MAXIMUM STEPSIZE WHICH MEETS STABILITY CRITERION OF THE DISPERSION TERM
 =  20.29    (WHEN MIN. R.F.=1)  AT K=   1, I=   1, J=  31
     1 CALLS TO GCG PACKAGE FOR TRANSPORT TIME STEP   4 IN FLOW TIME STEP 438 STRESS PERIOD   1
     5 TOTAL ITERATIONS
  MAXIMUM CONCENTRATION CHANGES FOR EACH ITERATION:
  MAX. CHANGE LAYER,ROW,COL MAX. CHANGE LAYER,ROW,COL MAX. CHANGE LAYER,ROW,COL MAX. CHANGE LAYER,ROW,COL MAX. CHANGE LAYER,ROW,COL
 ------------------------------------------------------------------------------------------------------------------------------------
   0.1575E-01 (  2,  1, 78)  0.2861E-03 (  2,  1, 46)  0.7696E-05 (  2,  1, 79)  0.2479E-06 (  3,  1, 79)  0.5204E-08 (  4,  1, 75)


                                          ================================================
                                                         FROM TIME =   4380.0     TO    4390.0    

 
 SOLVING FOR HEAD 
 FLOW MODEL IS TRANSIENT
 FLOW MODEL CONTAINS CONSTANT-HEAD CELLS


 MAXIMUM STEPSIZE DURING WHICH ANY PARTICLE CANNOT MOVE MORE THAN ONE CELL
 =  5.611    (WHEN MIN. R.F.=1)  AT K=   4, I=   1, J=  60

 MAXIMUM STEPSIZE WHICH MEETS STABILITY CRITERION OF THE ADVECTION TERM
 (FOR PURE FINITE-DIFFERENCE OPTION, MIXELM=0) 
 =  3.955    (WHEN MIN. R.F.=1)  AT K=   2, I=   1, J=  44


 TOTAL NUMBER OF POINT SOURCES/SINKS PRESENT IN THE FLOW MODEL =    62

 MAXIMUM STEPSIZE WHICH MEETS STABILITY CRITERION OF THE SINK & SOURCE TERM
 =  330.7    (WHEN MIN. R.F.=1)  AT K=   2, I=   1, J= 120

 MAXIMUM STEPSIZE WHICH MEETS STABILITY CRITERION OF THE DISPERSION TERM
 =  20.29    (WHEN MIN. R.F.=1)  AT K=   1, I=   1, J=  31


     1 CALLS TO GCG PACKAGE FOR TRANSPORT TIME STEP   1 IN FLOW TIME STEP 439 STRESS PERIOD   1
     6 TOTAL ITERATIONS

 NO OUTPUT CONTROL FOR STRESS PERIOD    1   TIME STEP 439
 
 SOLVING FOR HEAD 
 FLOW MODEL IS TRANSIENT
 FLOW MODEL CONTAINS CONSTANT-HEAD CELLS


 MAXIMUM STEPSIZE DURING WHICH ANY PARTICLE CANNOT MOVE MORE THAN ONE CELL
 =  5.608    (WHEN MIN. R.F.=1)  AT K=   4, I=   1, J=  60

 MAXIMUM STEPSIZE WHICH MEETS STABILITY CRITERION OF THE ADVECTION TERM
 (FOR PURE FINITE-DIFFERENCE OPTION, MIXELM=0) 
 =  4.049    (WHEN MIN. R.F.=1)  AT K=   2, I=   1, J=  44


 TOTAL NUMBER OF POINT SOURCES/SINKS PRESENT IN THE FLOW MODEL =    62

 MAXIMUM STEPSIZE WHICH MEETS STABILITY CRITERION OF THE SINK & SOURCE TERM
 =  311.2    (WHEN MIN. R.F.=1)  AT K=   2, I=   1, J= 120

 MAXIMUM STEPSIZE WHICH MEETS STABILITY CRITERION OF THE DISPERSION TERM
 =  20.29    (WHEN MIN. R.F.=1)  AT K=   1, I=   1, J=  31
     1 CALLS TO GCG PACKAGE FOR TRANSPORT TIME STEP   2 IN FLOW TIME STEP 439 STRESS PERIOD   1
     6 TOTAL ITERATIONS
 
 SOLVING FOR HEAD 
 FLOW MODEL IS TRANSIENT
 FLOW MODEL CONTAINS CONSTANT-HEAD CELLS


 MAXIMUM STEPSIZE DURING WHICH ANY PARTICLE CANNOT MOVE MORE THAN ONE CELL
 =  5.604    (WHEN MIN. R.F.=1)  AT K=   4, I=   1, J=  60

 MAXIMUM STEPSIZE WHICH MEETS STABILITY CRITERION OF THE ADVECTION TERM
 (FOR PURE FINITE-DIFFERENCE OPTION, MIXELM=0) 
 =  4.291    (WHEN MIN. R.F.=1)  AT K=   2, I=   1, J=  44


 TOTAL NUMBER OF POINT SOURCES/SINKS PRESENT IN THE FLOW MODEL =    62

 MAXIMUM STEPSIZE WHICH MEETS STABILITY CRITERION OF THE SINK & SOURCE TERM
 =  308.6    (WHEN MIN. R.F.=1)  AT K=   2, I=   1, J= 120

 MAXIMUM STEPSIZE WHICH MEETS STABILITY CRITERION OF THE DISPERSION TERM
 =  20.29    (WHEN MIN. R.F.=1)  AT K=   1, I=   1, J=  31
     1 CALLS TO GCG PACKAGE FOR TRANSPORT TIME STEP   3 IN FLOW TIME STEP 439 STRESS PERIOD   1
     6 TOTAL ITERATIONS
 
 SOLVING FOR HEAD 
 FLOW MODEL IS TRANSIENT
 FLOW MODEL CONTAINS CONSTANT-HEAD CELLS


 MAXIMUM STEPSIZE DURING WHICH ANY PARTICLE CANNOT MOVE MORE THAN ONE CELL
 =  5.600    (WHEN MIN. R.F.=1)  AT K=   4, I=   1, J=  60

 MAXIMUM STEPSIZE WHICH MEETS STABILITY CRITERION OF THE ADVECTION TERM
 (FOR PURE FINITE-DIFFERENCE OPTION, MIXELM=0) 
 =  4.286    (WHEN MIN. R.F.=1)  AT K=   2, I=   1, J=  76


 TOTAL NUMBER OF POINT SOURCES/SINKS PRESENT IN THE FLOW MODEL =    62

 MAXIMUM STEPSIZE WHICH MEETS STABILITY CRITERION OF THE SINK & SOURCE TERM
 =  303.1    (WHEN MIN. R.F.=1)  AT K=   2, I=   1, J= 120

 MAXIMUM STEPSIZE WHICH MEETS STABILITY CRITERION OF THE DISPERSION TERM
 =  20.29    (WHEN MIN. R.F.=1)  AT K=   1, I=   1, J=  31
     1 CALLS TO GCG PACKAGE FOR TRANSPORT TIME STEP   4 IN FLOW TIME STEP 439 STRESS PERIOD   1
     4 TOTAL ITERATIONS
  MAXIMUM CONCENTRATION CHANGES FOR EACH ITERATION:
  MAX. CHANGE LAYER,ROW,COL MAX. CHANGE LAYER,ROW,COL MAX. CHANGE LAYER,ROW,COL MAX. CHANGE LAYER,ROW,COL MAX. CHANGE LAYER,ROW,COL
 ------------------------------------------------------------------------------------------------------------------------------------
   0.1114E-01 (  2,  1, 43)  0.1852E-03 (  2,  1, 45)  0.4134E-05 (  2,  1, 78)  0.9699E-07 (  3,  1, 78)


                                          ================================================
                                                         FROM TIME =   4390.0     TO    4400.0    

 
 SOLVING FOR HEAD 
 FLOW MODEL IS TRANSIENT
 FLOW MODEL CONTAINS CONSTANT-HEAD CELLS


 MAXIMUM STEPSIZE DURING WHICH ANY PARTICLE CANNOT MOVE MORE THAN ONE CELL
 =  5.602    (WHEN MIN. R.F.=1)  AT K=   4, I=   1, J=  60

 MAXIMUM STEPSIZE WHICH MEETS STABILITY CRITERION OF THE ADVECTION TERM
 (FOR PURE FINITE-DIFFERENCE OPTION, MIXELM=0) 
 =  4.275    (WHEN MIN. R.F.=1)  AT K=   2, I=   1, J=  76


 TOTAL NUMBER OF POINT SOURCES/SINKS PRESENT IN THE FLOW MODEL =    62

 MAXIMUM STEPSIZE WHICH MEETS STABILITY CRITERION OF THE SINK & SOURCE TERM
 =  309.3    (WHEN MIN. R.F.=1)  AT K=   2, I=   1, J= 120

 MAXIMUM STEPSIZE WHICH MEETS STABILITY CRITERION OF THE DISPERSION TERM
 =  20.29    (WHEN MIN. R.F.=1)  AT K=   1, I=   1, J=  31


     1 CALLS TO GCG PACKAGE FOR TRANSPORT TIME STEP   1 IN FLOW TIME STEP 440 STRESS PERIOD   1
     6 TOTAL ITERATIONS

 NO OUTPUT CONTROL FOR STRESS PERIOD    1   TIME STEP 440
 
 SOLVING FOR HEAD 
 FLOW MODEL IS TRANSIENT
 FLOW MODEL CONTAINS CONSTANT-HEAD CELLS


 MAXIMUM STEPSIZE DURING WHICH ANY PARTICLE CANNOT MOVE MORE THAN ONE CELL
 =  5.598    (WHEN MIN. R.F.=1)  AT K=   4, I=   1, J=  60

 MAXIMUM STEPSIZE WHICH MEETS STABILITY CRITERION OF THE ADVECTION TERM
 (FOR PURE FINITE-DIFFERENCE OPTION, MIXELM=0) 
 =  4.323    (WHEN MIN. R.F.=1)  AT K=   2, I=   1, J=  76


 TOTAL NUMBER OF POINT SOURCES/SINKS PRESENT IN THE FLOW MODEL =    62

 MAXIMUM STEPSIZE WHICH MEETS STABILITY CRITERION OF THE SINK & SOURCE TERM
 =  288.6    (WHEN MIN. R.F.=1)  AT K=   2, I=   1, J= 120

 MAXIMUM STEPSIZE WHICH MEETS STABILITY CRITERION OF THE DISPERSION TERM
 =  20.29    (WHEN MIN. R.F.=1)  AT K=   1, I=   1, J=  31
     1 CALLS TO GCG PACKAGE FOR TRANSPORT TIME STEP   2 IN FLOW TIME STEP 440 STRESS PERIOD   1
     6 TOTAL ITERATIONS
 
 SOLVING FOR HEAD 
 FLOW MODEL IS TRANSIENT
 FLOW MODEL CONTAINS CONSTANT-HEAD CELLS


 MAXIMUM STEPSIZE DURING WHICH ANY PARTICLE CANNOT MOVE MORE THAN ONE CELL
 =  5.594    (WHEN MIN. R.F.=1)  AT K=   4, I=   1, J=  60

 MAXIMUM STEPSIZE WHICH MEETS STABILITY CRITERION OF THE ADVECTION TERM
 (FOR PURE FINITE-DIFFERENCE OPTION, MIXELM=0) 
 =  4.342    (WHEN MIN. R.F.=1)  AT K=   2, I=   1, J=  45


 TOTAL NUMBER OF POINT SOURCES/SINKS PRESENT IN THE FLOW MODEL =    62

 MAXIMUM STEPSIZE WHICH MEETS STABILITY CRITERION OF THE SINK & SOURCE TERM
 =  277.3    (WHEN MIN. R.F.=1)  AT K=   2, I=   1, J= 120

 MAXIMUM STEPSIZE WHICH MEETS STABILITY CRITERION OF THE DISPERSION TERM
 =  20.29    (WHEN MIN. R.F.=1)  AT K=   1, I=   1, J=  31
     1 CALLS TO GCG PACKAGE FOR TRANSPORT TIME STEP   3 IN FLOW TIME STEP 440 STRESS PERIOD   1
     6 TOTAL ITERATIONS
 
 SOLVING FOR HEAD 
 FLOW MODEL IS TRANSIENT
 FLOW MODEL CONTAINS CONSTANT-HEAD CELLS


 MAXIMUM STEPSIZE DURING WHICH ANY PARTICLE CANNOT MOVE MORE THAN ONE CELL
 =  5.591    (WHEN MIN. R.F.=1)  AT K=   4, I=   1, J=  60

 MAXIMUM STEPSIZE WHICH MEETS STABILITY CRITERION OF THE ADVECTION TERM
 (FOR PURE FINITE-DIFFERENCE OPTION, MIXELM=0) 
 =  4.398    (WHEN MIN. R.F.=1)  AT K=   2, I=   1, J=  45


 TOTAL NUMBER OF POINT SOURCES/SINKS PRESENT IN THE FLOW MODEL =    62

 MAXIMUM STEPSIZE WHICH MEETS STABILITY CRITERION OF THE SINK & SOURCE TERM
 =  271.3    (WHEN MIN. R.F.=1)  AT K=   2, I=   1, J= 120

 MAXIMUM STEPSIZE WHICH MEETS STABILITY CRITERION OF THE DISPERSION TERM
 =  20.29    (WHEN MIN. R.F.=1)  AT K=   1, I=   1, J=  31
     1 CALLS TO GCG PACKAGE FOR TRANSPORT TIME STEP   4 IN FLOW TIME STEP 440 STRESS PERIOD   1
     4 TOTAL ITERATIONS
  MAXIMUM CONCENTRATION CHANGES FOR EACH ITERATION:
  MAX. CHANGE LAYER,ROW,COL MAX. CHANGE LAYER,ROW,COL MAX. CHANGE LAYER,ROW,COL MAX. CHANGE LAYER,ROW,COL MAX. CHANGE LAYER,ROW,COL
 ------------------------------------------------------------------------------------------------------------------------------------
   0.3622E-02 (  2,  1, 77)  0.1790E-04 (  2,  1, 83)  0.1276E-06 (  2,  1, 43)  0.1151E-08 (  3,  1, 43)


                                          ================================================
                                                         FROM TIME =   4400.0     TO    4410.0    

 
 SOLVING FOR HEAD 
 FLOW MODEL IS TRANSIENT
 FLOW MODEL CONTAINS CONSTANT-HEAD CELLS


 MAXIMUM STEPSIZE DURING WHICH ANY PARTICLE CANNOT MOVE MORE THAN ONE CELL
 =  5.593    (WHEN MIN. R.F.=1)  AT K=   4, I=   1, J=  60

 MAXIMUM STEPSIZE WHICH MEETS STABILITY CRITERION OF THE ADVECTION TERM
 (FOR PURE FINITE-DIFFERENCE OPTION, MIXELM=0) 
 =  4.414    (WHEN MIN. R.F.=1)  AT K=  30, I=   1, J=  96


 TOTAL NUMBER OF POINT SOURCES/SINKS PRESENT IN THE FLOW MODEL =    62

 MAXIMUM STEPSIZE WHICH MEETS STABILITY CRITERION OF THE SINK & SOURCE TERM
 =  271.5    (WHEN MIN. R.F.=1)  AT K=   2, I=   1, J= 120

 MAXIMUM STEPSIZE WHICH MEETS STABILITY CRITERION OF THE DISPERSION TERM
 =  20.29    (WHEN MIN. R.F.=1)  AT K=   1, I=   1, J=  31


     1 CALLS TO GCG PACKAGE FOR TRANSPORT TIME STEP   1 IN FLOW TIME STEP 441 STRESS PERIOD   1
     6 TOTAL ITERATIONS

 NO OUTPUT CONTROL FOR STRESS PERIOD    1   TIME STEP 441
 
 SOLVING FOR HEAD 
 FLOW MODEL IS TRANSIENT
 FLOW MODEL CONTAINS CONSTANT-HEAD CELLS


 MAXIMUM STEPSIZE DURING WHICH ANY PARTICLE CANNOT MOVE MORE THAN ONE CELL
 =  5.592    (WHEN MIN. R.F.=1)  AT K=   4, I=   1, J=  60

 MAXIMUM STEPSIZE WHICH MEETS STABILITY CRITERION OF THE ADVECTION TERM
 (FOR PURE FINITE-DIFFERENCE OPTION, MIXELM=0) 
 =  4.402    (WHEN MIN. R.F.=1)  AT K=   2, I=   1, J=  75


 TOTAL NUMBER OF POINT SOURCES/SINKS PRESENT IN THE FLOW MODEL =    62

 MAXIMUM STEPSIZE WHICH MEETS STABILITY CRITERION OF THE SINK & SOURCE TERM
 =  252.7    (WHEN MIN. R.F.=1)  AT K=   2, I=   1, J= 120

 MAXIMUM STEPSIZE WHICH MEETS STABILITY CRITERION OF THE DISPERSION TERM
 =  20.29    (WHEN MIN. R.F.=1)  AT K=   1, I=   1, J=  31
     1 CALLS TO GCG PACKAGE FOR TRANSPORT TIME STEP   2 IN FLOW TIME STEP 441 STRESS PERIOD   1
     6 TOTAL ITERATIONS
 
 SOLVING FOR HEAD 
 FLOW MODEL IS TRANSIENT
 FLOW MODEL CONTAINS CONSTANT-HEAD CELLS


 MAXIMUM STEPSIZE DURING WHICH ANY PARTICLE CANNOT MOVE MORE THAN ONE CELL
 =  5.593    (WHEN MIN. R.F.=1)  AT K=   4, I=   1, J=  60

 MAXIMUM STEPSIZE WHICH MEETS STABILITY CRITERION OF THE ADVECTION TERM
 (FOR PURE FINITE-DIFFERENCE OPTION, MIXELM=0) 
 =  4.242    (WHEN MIN. R.F.=1)  AT K=   2, I=   1, J=  75


 TOTAL NUMBER OF POINT SOURCES/SINKS PRESENT IN THE FLOW MODEL =    62

 MAXIMUM STEPSIZE WHICH MEETS STABILITY CRITERION OF THE SINK & SOURCE TERM
 =  239.5    (WHEN MIN. R.F.=1)  AT K=   2, I=   1, J= 120

 MAXIMUM STEPSIZE WHICH MEETS STABILITY CRITERION OF THE DISPERSION TERM
 =  20.29    (WHEN MIN. R.F.=1)  AT K=   1, I=   1, J=  31
     1 CALLS TO GCG PACKAGE FOR TRANSPORT TIME STEP   3 IN FLOW TIME STEP 441 STRESS PERIOD   1
     6 TOTAL ITERATIONS
 
 SOLVING FOR HEAD 
 FLOW MODEL IS TRANSIENT
 FLOW MODEL CONTAINS CONSTANT-HEAD CELLS


 MAXIMUM STEPSIZE DURING WHICH ANY PARTICLE CANNOT MOVE MORE THAN ONE CELL
 =  5.378    (WHEN MIN. R.F.=1)  AT K=   4, I=   1, J=  74

 MAXIMUM STEPSIZE WHICH MEETS STABILITY CRITERION OF THE ADVECTION TERM
 (FOR PURE FINITE-DIFFERENCE OPTION, MIXELM=0) 
 =  4.103    (WHEN MIN. R.F.=1)  AT K=   2, I=   1, J=  81


 TOTAL NUMBER OF POINT SOURCES/SINKS PRESENT IN THE FLOW MODEL =    62

 MAXIMUM STEPSIZE WHICH MEETS STABILITY CRITERION OF THE SINK & SOURCE TERM
 =  235.4    (WHEN MIN. R.F.=1)  AT K=   2, I=   1, J= 120

 MAXIMUM STEPSIZE WHICH MEETS STABILITY CRITERION OF THE DISPERSION TERM
 =  20.29    (WHEN MIN. R.F.=1)  AT K=   1, I=   1, J=  31
     1 CALLS TO GCG PACKAGE FOR TRANSPORT TIME STEP   4 IN FLOW TIME STEP 441 STRESS PERIOD   1
     3 TOTAL ITERATIONS
  MAXIMUM CONCENTRATION CHANGES FOR EACH ITERATION:
  MAX. CHANGE LAYER,ROW,COL MAX. CHANGE LAYER,ROW,COL MAX. CHANGE LAYER,ROW,COL MAX. CHANGE LAYER,ROW,COL MAX. CHANGE LAYER,ROW,COL
 ------------------------------------------------------------------------------------------------------------------------------------
   0.9686E-03 (  2,  1, 83)  0.1307E-05 (  3,  1, 78)  0.2811E-08 (  2,  1, 77)


                                          ================================================
                                                         FROM TIME =   4410.0     TO    4420.0    

 
 SOLVING FOR HEAD 
 FLOW MODEL IS TRANSIENT
 FLOW MODEL CONTAINS CONSTANT-HEAD CELLS


 MAXIMUM STEPSIZE DURING WHICH ANY PARTICLE CANNOT MOVE MORE THAN ONE CELL
 =  5.371    (WHEN MIN. R.F.=1)  AT K=   4, I=   1, J=  74

 MAXIMUM STEPSIZE WHICH MEETS STABILITY CRITERION OF THE ADVECTION TERM
 (FOR PURE FINITE-DIFFERENCE OPTION, MIXELM=0) 
 =  4.093    (WHEN MIN. R.F.=1)  AT K=   2, I=   1, J=  81


 TOTAL NUMBER OF POINT SOURCES/SINKS PRESENT IN THE FLOW MODEL =    62

 MAXIMUM STEPSIZE WHICH MEETS STABILITY CRITERION OF THE SINK & SOURCE TERM
 =  254.8    (WHEN MIN. R.F.=1)  AT K=   2, I=   1, J= 120

 MAXIMUM STEPSIZE WHICH MEETS STABILITY CRITERION OF THE DISPERSION TERM
 =  20.29    (WHEN MIN. R.F.=1)  AT K=   1, I=   1, J=  31


     1 CALLS TO GCG PACKAGE FOR TRANSPORT TIME STEP   1 IN FLOW TIME STEP 442 STRESS PERIOD   1
     6 TOTAL ITERATIONS

 NO OUTPUT CONTROL FOR STRESS PERIOD    1   TIME STEP 442
 
 SOLVING FOR HEAD 
 FLOW MODEL IS TRANSIENT
 FLOW MODEL CONTAINS CONSTANT-HEAD CELLS


 MAXIMUM STEPSIZE DURING WHICH ANY PARTICLE CANNOT MOVE MORE THAN ONE CELL
 =  5.184    (WHEN MIN. R.F.=1)  AT K=   4, I=   1, J=  74

 MAXIMUM STEPSIZE WHICH MEETS STABILITY CRITERION OF THE ADVECTION TERM
 (FOR PURE FINITE-DIFFERENCE OPTION, MIXELM=0) 
 =  3.898    (WHEN MIN. R.F.=1)  AT K=   2, I=   1, J=  81


 TOTAL NUMBER OF POINT SOURCES/SINKS PRESENT IN THE FLOW MODEL =    62

 MAXIMUM STEPSIZE WHICH MEETS STABILITY CRITERION OF THE SINK & SOURCE TERM
 =  242.3    (WHEN MIN. R.F.=1)  AT K=   2, I=   1, J= 120

 MAXIMUM STEPSIZE WHICH MEETS STABILITY CRITERION OF THE DISPERSION TERM
 =  20.29    (WHEN MIN. R.F.=1)  AT K=   1, I=   1, J=  31
     1 CALLS TO GCG PACKAGE FOR TRANSPORT TIME STEP   2 IN FLOW TIME STEP 442 STRESS PERIOD   1
     6 TOTAL ITERATIONS
 
 SOLVING FOR HEAD 
 FLOW MODEL IS TRANSIENT
 FLOW MODEL CONTAINS CONSTANT-HEAD CELLS


 MAXIMUM STEPSIZE DURING WHICH ANY PARTICLE CANNOT MOVE MORE THAN ONE CELL
 =  5.048    (WHEN MIN. R.F.=1)  AT K=   4, I=   1, J=  74

 MAXIMUM STEPSIZE WHICH MEETS STABILITY CRITERION OF THE ADVECTION TERM
 (FOR PURE FINITE-DIFFERENCE OPTION, MIXELM=0) 
 =  3.913    (WHEN MIN. R.F.=1)  AT K=   2, I=   1, J=  81


 TOTAL NUMBER OF POINT SOURCES/SINKS PRESENT IN THE FLOW MODEL =    62

 MAXIMUM STEPSIZE WHICH MEETS STABILITY CRITERION OF THE SINK & SOURCE TERM
 =  229.2    (WHEN MIN. R.F.=1)  AT K=   2, I=   1, J= 120

 MAXIMUM STEPSIZE WHICH MEETS STABILITY CRITERION OF THE DISPERSION TERM
 =  20.29    (WHEN MIN. R.F.=1)  AT K=   1, I=   1, J=  31
     1 CALLS TO GCG PACKAGE FOR TRANSPORT TIME STEP   3 IN FLOW TIME STEP 442 STRESS PERIOD   1
     6 TOTAL ITERATIONS
 
 SOLVING FOR HEAD 
 FLOW MODEL IS TRANSIENT
 FLOW MODEL CONTAINS CONSTANT-HEAD CELLS


 MAXIMUM STEPSIZE DURING WHICH ANY PARTICLE CANNOT MOVE MORE THAN ONE CELL
 =  4.960    (WHEN MIN. R.F.=1)  AT K=   4, I=   1, J=  74

 MAXIMUM STEPSIZE WHICH MEETS STABILITY CRITERION OF THE ADVECTION TERM
 (FOR PURE FINITE-DIFFERENCE OPTION, MIXELM=0) 
 =  4.086    (WHEN MIN. R.F.=1)  AT K=   2, I=   1, J=  80


 TOTAL NUMBER OF POINT SOURCES/SINKS PRESENT IN THE FLOW MODEL =    62

 MAXIMUM STEPSIZE WHICH MEETS STABILITY CRITERION OF THE SINK & SOURCE TERM
 =  219.9    (WHEN MIN. R.F.=1)  AT K=   2, I=   1, J= 120

 MAXIMUM STEPSIZE WHICH MEETS STABILITY CRITERION OF THE DISPERSION TERM
 =  20.29    (WHEN MIN. R.F.=1)  AT K=   1, I=   1, J=  31
     1 CALLS TO GCG PACKAGE FOR TRANSPORT TIME STEP   4 IN FLOW TIME STEP 442 STRESS PERIOD   1
     4 TOTAL ITERATIONS
  MAXIMUM CONCENTRATION CHANGES FOR EACH ITERATION:
  MAX. CHANGE LAYER,ROW,COL MAX. CHANGE LAYER,ROW,COL MAX. CHANGE LAYER,ROW,COL MAX. CHANGE LAYER,ROW,COL MAX. CHANGE LAYER,ROW,COL
 ------------------------------------------------------------------------------------------------------------------------------------
   0.1171E-01 (  2,  1, 82)  0.1436E-03 (  3,  1, 77)  0.3674E-05 (  3,  1, 80)  0.6726E-07 (  4,  1, 80)


                                          ================================================
                                                         FROM TIME =   4420.0     TO    4430.0    

 
 SOLVING FOR HEAD 
 FLOW MODEL IS TRANSIENT
 FLOW MODEL CONTAINS CONSTANT-HEAD CELLS


 MAXIMUM STEPSIZE DURING WHICH ANY PARTICLE CANNOT MOVE MORE THAN ONE CELL
 =  4.943    (WHEN MIN. R.F.=1)  AT K=   4, I=   1, J=  74

 MAXIMUM STEPSIZE WHICH MEETS STABILITY CRITERION OF THE ADVECTION TERM
 (FOR PURE FINITE-DIFFERENCE OPTION, MIXELM=0) 
 =  3.955    (WHEN MIN. R.F.=1)  AT K=   2, I=   1, J=  80


 TOTAL NUMBER OF POINT SOURCES/SINKS PRESENT IN THE FLOW MODEL =    62

 MAXIMUM STEPSIZE WHICH MEETS STABILITY CRITERION OF THE SINK & SOURCE TERM
 =  220.4    (WHEN MIN. R.F.=1)  AT K=   2, I=   1, J= 120

 MAXIMUM STEPSIZE WHICH MEETS STABILITY CRITERION OF THE DISPERSION TERM
 =  20.29    (WHEN MIN. R.F.=1)  AT K=   1, I=   1, J=  31


     1 CALLS TO GCG PACKAGE FOR TRANSPORT TIME STEP   1 IN FLOW TIME STEP 443 STRESS PERIOD   1
     6 TOTAL ITERATIONS

 NO OUTPUT CONTROL FOR STRESS PERIOD    1   TIME STEP 443
 
 SOLVING FOR HEAD 
 FLOW MODEL IS TRANSIENT
 FLOW MODEL CONTAINS CONSTANT-HEAD CELLS


 MAXIMUM STEPSIZE DURING WHICH ANY PARTICLE CANNOT MOVE MORE THAN ONE CELL
 =  4.908    (WHEN MIN. R.F.=1)  AT K=   4, I=   1, J=  74

 MAXIMUM STEPSIZE WHICH MEETS STABILITY CRITERION OF THE ADVECTION TERM
 (FOR PURE FINITE-DIFFERENCE OPTION, MIXELM=0) 
 =  3.666    (WHEN MIN. R.F.=1)  AT K=   2, I=   1, J=  80


 TOTAL NUMBER OF POINT SOURCES/SINKS PRESENT IN THE FLOW MODEL =    62

 MAXIMUM STEPSIZE WHICH MEETS STABILITY CRITERION OF THE SINK & SOURCE TERM
 =  207.1    (WHEN MIN. R.F.=1)  AT K=   2, I=   1, J= 120

 MAXIMUM STEPSIZE WHICH MEETS STABILITY CRITERION OF THE DISPERSION TERM
 =  20.29    (WHEN MIN. R.F.=1)  AT K=   1, I=   1, J=  31
     1 CALLS TO GCG PACKAGE FOR TRANSPORT TIME STEP   2 IN FLOW TIME STEP 443 STRESS PERIOD   1
     6 TOTAL ITERATIONS
 
 SOLVING FOR HEAD 
 FLOW MODEL IS TRANSIENT
 FLOW MODEL CONTAINS CONSTANT-HEAD CELLS


 MAXIMUM STEPSIZE DURING WHICH ANY PARTICLE CANNOT MOVE MORE THAN ONE CELL
 =  4.913    (WHEN MIN. R.F.=1)  AT K=   4, I=   1, J=  74

 MAXIMUM STEPSIZE WHICH MEETS STABILITY CRITERION OF THE ADVECTION TERM
 (FOR PURE FINITE-DIFFERENCE OPTION, MIXELM=0) 
 =  3.592    (WHEN MIN. R.F.=1)  AT K=   2, I=   1, J=  80


 TOTAL NUMBER OF POINT SOURCES/SINKS PRESENT IN THE FLOW MODEL =    62

 MAXIMUM STEPSIZE WHICH MEETS STABILITY CRITERION OF THE SINK & SOURCE TERM
 =  211.0    (WHEN MIN. R.F.=1)  AT K=   2, I=   1, J= 120

 MAXIMUM STEPSIZE WHICH MEETS STABILITY CRITERION OF THE DISPERSION TERM
 =  20.29    (WHEN MIN. R.F.=1)  AT K=   1, I=   1, J=  31
     1 CALLS TO GCG PACKAGE FOR TRANSPORT TIME STEP   3 IN FLOW TIME STEP 443 STRESS PERIOD   1
     6 TOTAL ITERATIONS
 
 SOLVING FOR HEAD 
 FLOW MODEL IS TRANSIENT
 FLOW MODEL CONTAINS CONSTANT-HEAD CELLS


 MAXIMUM STEPSIZE DURING WHICH ANY PARTICLE CANNOT MOVE MORE THAN ONE CELL
 =  4.960    (WHEN MIN. R.F.=1)  AT K=   4, I=   1, J=  74

 MAXIMUM STEPSIZE WHICH MEETS STABILITY CRITERION OF THE ADVECTION TERM
 (FOR PURE FINITE-DIFFERENCE OPTION, MIXELM=0) 
 =  3.700    (WHEN MIN. R.F.=1)  AT K=   2, I=   1, J=  80


 TOTAL NUMBER OF POINT SOURCES/SINKS PRESENT IN THE FLOW MODEL =    62

 MAXIMUM STEPSIZE WHICH MEETS STABILITY CRITERION OF THE SINK & SOURCE TERM
 =  213.7    (WHEN MIN. R.F.=1)  AT K=   2, I=   1, J= 120

 MAXIMUM STEPSIZE WHICH MEETS STABILITY CRITERION OF THE DISPERSION TERM
 =  20.29    (WHEN MIN. R.F.=1)  AT K=   1, I=   1, J=  31
     1 CALLS TO GCG PACKAGE FOR TRANSPORT TIME STEP   4 IN FLOW TIME STEP 443 STRESS PERIOD   1
     5 TOTAL ITERATIONS
  MAXIMUM CONCENTRATION CHANGES FOR EACH ITERATION:
  MAX. CHANGE LAYER,ROW,COL MAX. CHANGE LAYER,ROW,COL MAX. CHANGE LAYER,ROW,COL MAX. CHANGE LAYER,ROW,COL MAX. CHANGE LAYER,ROW,COL
 ------------------------------------------------------------------------------------------------------------------------------------
   0.1520E-01 (  2,  1, 81)  0.2578E-03 (  2,  1, 79)  0.9381E-05 (  3,  1, 79)  0.2171E-06 (  3,  1, 82)  0.5086E-08 (  4,  1, 77)


                                          ================================================
                                                         FROM TIME =   4430.0     TO    4440.0    

 
 SOLVING FOR HEAD 
 FLOW MODEL IS TRANSIENT
 FLOW MODEL CONTAINS CONSTANT-HEAD CELLS


 MAXIMUM STEPSIZE DURING WHICH ANY PARTICLE CANNOT MOVE MORE THAN ONE CELL
 =  4.986    (WHEN MIN. R.F.=1)  AT K=   5, I=   1, J=  74

 MAXIMUM STEPSIZE WHICH MEETS STABILITY CRITERION OF THE ADVECTION TERM
 (FOR PURE FINITE-DIFFERENCE OPTION, MIXELM=0) 
 =  3.832    (WHEN MIN. R.F.=1)  AT K=   2, I=   1, J=  80


 TOTAL NUMBER OF POINT SOURCES/SINKS PRESENT IN THE FLOW MODEL =    62

 MAXIMUM STEPSIZE WHICH MEETS STABILITY CRITERION OF THE SINK & SOURCE TERM
 =  222.8    (WHEN MIN. R.F.=1)  AT K=   2, I=   1, J= 120

 MAXIMUM STEPSIZE WHICH MEETS STABILITY CRITERION OF THE DISPERSION TERM
 =  20.29    (WHEN MIN. R.F.=1)  AT K=   1, I=   1, J=  31


     1 CALLS TO GCG PACKAGE FOR TRANSPORT TIME STEP   1 IN FLOW TIME STEP 444 STRESS PERIOD   1
     6 TOTAL ITERATIONS

 NO OUTPUT CONTROL FOR STRESS PERIOD    1   TIME STEP 444
 
 SOLVING FOR HEAD 
 FLOW MODEL IS TRANSIENT
 FLOW MODEL CONTAINS CONSTANT-HEAD CELLS


 MAXIMUM STEPSIZE DURING WHICH ANY PARTICLE CANNOT MOVE MORE THAN ONE CELL
 =  5.031    (WHEN MIN. R.F.=1)  AT K=   5, I=   1, J=  74

 MAXIMUM STEPSIZE WHICH MEETS STABILITY CRITERION OF THE ADVECTION TERM
 (FOR PURE FINITE-DIFFERENCE OPTION, MIXELM=0) 
 =  3.791    (WHEN MIN. R.F.=1)  AT K=   2, I=   1, J=  79


 TOTAL NUMBER OF POINT SOURCES/SINKS PRESENT IN THE FLOW MODEL =    62

 MAXIMUM STEPSIZE WHICH MEETS STABILITY CRITERION OF THE SINK & SOURCE TERM
 =  211.0    (WHEN MIN. R.F.=1)  AT K=   2, I=   1, J= 120

 MAXIMUM STEPSIZE WHICH MEETS STABILITY CRITERION OF THE DISPERSION TERM
 =  20.29    (WHEN MIN. R.F.=1)  AT K=   1, I=   1, J=  31
     1 CALLS TO GCG PACKAGE FOR TRANSPORT TIME STEP   2 IN FLOW TIME STEP 444 STRESS PERIOD   1
     6 TOTAL ITERATIONS
 
 SOLVING FOR HEAD 
 FLOW MODEL IS TRANSIENT
 FLOW MODEL CONTAINS CONSTANT-HEAD CELLS


 MAXIMUM STEPSIZE DURING WHICH ANY PARTICLE CANNOT MOVE MORE THAN ONE CELL
 =  5.107    (WHEN MIN. R.F.=1)  AT K=   5, I=   1, J=  74

 MAXIMUM STEPSIZE WHICH MEETS STABILITY CRITERION OF THE ADVECTION TERM
 (FOR PURE FINITE-DIFFERENCE OPTION, MIXELM=0) 
 =  3.591    (WHEN MIN. R.F.=1)  AT K=   2, I=   1, J=  79


 TOTAL NUMBER OF POINT SOURCES/SINKS PRESENT IN THE FLOW MODEL =    62

 MAXIMUM STEPSIZE WHICH MEETS STABILITY CRITERION OF THE SINK & SOURCE TERM
 =  210.9    (WHEN MIN. R.F.=1)  AT K=   2, I=   1, J= 120

 MAXIMUM STEPSIZE WHICH MEETS STABILITY CRITERION OF THE DISPERSION TERM
 =  20.29    (WHEN MIN. R.F.=1)  AT K=   1, I=   1, J=  31
     1 CALLS TO GCG PACKAGE FOR TRANSPORT TIME STEP   3 IN FLOW TIME STEP 444 STRESS PERIOD   1
     6 TOTAL ITERATIONS
 
 SOLVING FOR HEAD 
 FLOW MODEL IS TRANSIENT
 FLOW MODEL CONTAINS CONSTANT-HEAD CELLS


 MAXIMUM STEPSIZE DURING WHICH ANY PARTICLE CANNOT MOVE MORE THAN ONE CELL
 =  5.213    (WHEN MIN. R.F.=1)  AT K=   5, I=   1, J=  74

 MAXIMUM STEPSIZE WHICH MEETS STABILITY CRITERION OF THE ADVECTION TERM
 (FOR PURE FINITE-DIFFERENCE OPTION, MIXELM=0) 
 =  3.543    (WHEN MIN. R.F.=1)  AT K=   2, I=   1, J=  79


 TOTAL NUMBER OF POINT SOURCES/SINKS PRESENT IN THE FLOW MODEL =    62

 MAXIMUM STEPSIZE WHICH MEETS STABILITY CRITERION OF THE SINK & SOURCE TERM
 =  214.5    (WHEN MIN. R.F.=1)  AT K=   2, I=   1, J= 120

 MAXIMUM STEPSIZE WHICH MEETS STABILITY CRITERION OF THE DISPERSION TERM
 =  20.29    (WHEN MIN. R.F.=1)  AT K=   1, I=   1, J=  31
     1 CALLS TO GCG PACKAGE FOR TRANSPORT TIME STEP   4 IN FLOW TIME STEP 444 STRESS PERIOD   1
     5 TOTAL ITERATIONS
  MAXIMUM CONCENTRATION CHANGES FOR EACH ITERATION:
  MAX. CHANGE LAYER,ROW,COL MAX. CHANGE LAYER,ROW,COL MAX. CHANGE LAYER,ROW,COL MAX. CHANGE LAYER,ROW,COL MAX. CHANGE LAYER,ROW,COL
 ------------------------------------------------------------------------------------------------------------------------------------
   0.1821E-01 (  2,  1, 80)  0.4288E-03 (  2,  1, 80)  0.1392E-04 (  3,  1, 42)  0.7057E-06 (  3,  1, 76)  0.1747E-07 (  4,  1, 76)


                                          ================================================
                                                         FROM TIME =   4440.0     TO    4450.0    

 
 SOLVING FOR HEAD 
 FLOW MODEL IS TRANSIENT
 FLOW MODEL CONTAINS CONSTANT-HEAD CELLS


 MAXIMUM STEPSIZE DURING WHICH ANY PARTICLE CANNOT MOVE MORE THAN ONE CELL
 =  5.280    (WHEN MIN. R.F.=1)  AT K=   5, I=   1, J=  47

 MAXIMUM STEPSIZE WHICH MEETS STABILITY CRITERION OF THE ADVECTION TERM
 (FOR PURE FINITE-DIFFERENCE OPTION, MIXELM=0) 
 =  3.578    (WHEN MIN. R.F.=1)  AT K=   2, I=   1, J=  79


 TOTAL NUMBER OF POINT SOURCES/SINKS PRESENT IN THE FLOW MODEL =    62

 MAXIMUM STEPSIZE WHICH MEETS STABILITY CRITERION OF THE SINK & SOURCE TERM
 =  231.3    (WHEN MIN. R.F.=1)  AT K=   2, I=   1, J= 120

 MAXIMUM STEPSIZE WHICH MEETS STABILITY CRITERION OF THE DISPERSION TERM
 =  20.29    (WHEN MIN. R.F.=1)  AT K=   1, I=   1, J=  31


     1 CALLS TO GCG PACKAGE FOR TRANSPORT TIME STEP   1 IN FLOW TIME STEP 445 STRESS PERIOD   1
     6 TOTAL ITERATIONS

 NO OUTPUT CONTROL FOR STRESS PERIOD    1   TIME STEP 445
 
 SOLVING FOR HEAD 
 FLOW MODEL IS TRANSIENT
 FLOW MODEL CONTAINS CONSTANT-HEAD CELLS


 MAXIMUM STEPSIZE DURING WHICH ANY PARTICLE CANNOT MOVE MORE THAN ONE CELL
 =  5.396    (WHEN MIN. R.F.=1)  AT K=   5, I=   1, J=  47

 MAXIMUM STEPSIZE WHICH MEETS STABILITY CRITERION OF THE ADVECTION TERM
 (FOR PURE FINITE-DIFFERENCE OPTION, MIXELM=0) 
 =  3.741    (WHEN MIN. R.F.=1)  AT K=   2, I=   1, J=  79


 TOTAL NUMBER OF POINT SOURCES/SINKS PRESENT IN THE FLOW MODEL =    62

 MAXIMUM STEPSIZE WHICH MEETS STABILITY CRITERION OF THE SINK & SOURCE TERM
 =  228.0    (WHEN MIN. R.F.=1)  AT K=   2, I=   1, J= 120

 MAXIMUM STEPSIZE WHICH MEETS STABILITY CRITERION OF THE DISPERSION TERM
 =  20.29    (WHEN MIN. R.F.=1)  AT K=   1, I=   1, J=  31
     1 CALLS TO GCG PACKAGE FOR TRANSPORT TIME STEP   2 IN FLOW TIME STEP 445 STRESS PERIOD   1
     6 TOTAL ITERATIONS
 
 SOLVING FOR HEAD 
 FLOW MODEL IS TRANSIENT
 FLOW MODEL CONTAINS CONSTANT-HEAD CELLS


 MAXIMUM STEPSIZE DURING WHICH ANY PARTICLE CANNOT MOVE MORE THAN ONE CELL
 =  5.515    (WHEN MIN. R.F.=1)  AT K=   6, I=   1, J=  74

 MAXIMUM STEPSIZE WHICH MEETS STABILITY CRITERION OF THE ADVECTION TERM
 (FOR PURE FINITE-DIFFERENCE OPTION, MIXELM=0) 
 =  3.745    (WHEN MIN. R.F.=1)  AT K=   2, I=   1, J=  42


 TOTAL NUMBER OF POINT SOURCES/SINKS PRESENT IN THE FLOW MODEL =    62

 MAXIMUM STEPSIZE WHICH MEETS STABILITY CRITERION OF THE SINK & SOURCE TERM
 =  227.6    (WHEN MIN. R.F.=1)  AT K=   2, I=   1, J= 120

 MAXIMUM STEPSIZE WHICH MEETS STABILITY CRITERION OF THE DISPERSION TERM
 =  20.29    (WHEN MIN. R.F.=1)  AT K=   1, I=   1, J=  31
     1 CALLS TO GCG PACKAGE FOR TRANSPORT TIME STEP   3 IN FLOW TIME STEP 445 STRESS PERIOD   1
     6 TOTAL ITERATIONS
 
 SOLVING FOR HEAD 
 FLOW MODEL IS TRANSIENT
 FLOW MODEL CONTAINS CONSTANT-HEAD CELLS


 MAXIMUM STEPSIZE DURING WHICH ANY PARTICLE CANNOT MOVE MORE THAN ONE CELL
 =  5.597    (WHEN MIN. R.F.=1)  AT K=   4, I=   1, J=  60

 MAXIMUM STEPSIZE WHICH MEETS STABILITY CRITERION OF THE ADVECTION TERM
 (FOR PURE FINITE-DIFFERENCE OPTION, MIXELM=0) 
 =  3.710    (WHEN MIN. R.F.=1)  AT K=   2, I=   1, J=  42


 TOTAL NUMBER OF POINT SOURCES/SINKS PRESENT IN THE FLOW MODEL =    62

 MAXIMUM STEPSIZE WHICH MEETS STABILITY CRITERION OF THE SINK & SOURCE TERM
 =  224.3    (WHEN MIN. R.F.=1)  AT K=   2, I=   1, J= 120

 MAXIMUM STEPSIZE WHICH MEETS STABILITY CRITERION OF THE DISPERSION TERM
 =  20.29    (WHEN MIN. R.F.=1)  AT K=   1, I=   1, J=  31
     1 CALLS TO GCG PACKAGE FOR TRANSPORT TIME STEP   4 IN FLOW TIME STEP 445 STRESS PERIOD   1
     5 TOTAL ITERATIONS
  MAXIMUM CONCENTRATION CHANGES FOR EACH ITERATION:
  MAX. CHANGE LAYER,ROW,COL MAX. CHANGE LAYER,ROW,COL MAX. CHANGE LAYER,ROW,COL MAX. CHANGE LAYER,ROW,COL MAX. CHANGE LAYER,ROW,COL
 ------------------------------------------------------------------------------------------------------------------------------------
   0.1951E-01 (  2,  1, 31)  0.6654E-03 (  2,  1, 78)  0.2309E-04 (  2,  1, 45)  0.1515E-05 (  3,  1, 45)  0.4777E-07 (  4,  1, 45)


                                          ================================================
                                                         FROM TIME =   4450.0     TO    4460.0    

 
 SOLVING FOR HEAD 
 FLOW MODEL IS TRANSIENT
 FLOW MODEL CONTAINS CONSTANT-HEAD CELLS


 MAXIMUM STEPSIZE DURING WHICH ANY PARTICLE CANNOT MOVE MORE THAN ONE CELL
 =  5.598    (WHEN MIN. R.F.=1)  AT K=   4, I=   1, J=  60

 MAXIMUM STEPSIZE WHICH MEETS STABILITY CRITERION OF THE ADVECTION TERM
 (FOR PURE FINITE-DIFFERENCE OPTION, MIXELM=0) 
 =  3.672    (WHEN MIN. R.F.=1)  AT K=   2, I=   1, J=  78


 TOTAL NUMBER OF POINT SOURCES/SINKS PRESENT IN THE FLOW MODEL =    62

 MAXIMUM STEPSIZE WHICH MEETS STABILITY CRITERION OF THE SINK & SOURCE TERM
 =  233.3    (WHEN MIN. R.F.=1)  AT K=   2, I=   1, J= 120

 MAXIMUM STEPSIZE WHICH MEETS STABILITY CRITERION OF THE DISPERSION TERM
 =  20.29    (WHEN MIN. R.F.=1)  AT K=   1, I=   1, J=  31


     1 CALLS TO GCG PACKAGE FOR TRANSPORT TIME STEP   1 IN FLOW TIME STEP 446 STRESS PERIOD   1
     6 TOTAL ITERATIONS

 NO OUTPUT CONTROL FOR STRESS PERIOD    1   TIME STEP 446
 
 SOLVING FOR HEAD 
 FLOW MODEL IS TRANSIENT
 FLOW MODEL CONTAINS CONSTANT-HEAD CELLS


 MAXIMUM STEPSIZE DURING WHICH ANY PARTICLE CANNOT MOVE MORE THAN ONE CELL
 =  5.597    (WHEN MIN. R.F.=1)  AT K=   4, I=   1, J=  60

 MAXIMUM STEPSIZE WHICH MEETS STABILITY CRITERION OF THE ADVECTION TERM
 (FOR PURE FINITE-DIFFERENCE OPTION, MIXELM=0) 
 =  3.640    (WHEN MIN. R.F.=1)  AT K=   2, I=   1, J=  78


 TOTAL NUMBER OF POINT SOURCES/SINKS PRESENT IN THE FLOW MODEL =    62

 MAXIMUM STEPSIZE WHICH MEETS STABILITY CRITERION OF THE SINK & SOURCE TERM
 =  230.2    (WHEN MIN. R.F.=1)  AT K=   2, I=   1, J= 120

 MAXIMUM STEPSIZE WHICH MEETS STABILITY CRITERION OF THE DISPERSION TERM
 =  20.29    (WHEN MIN. R.F.=1)  AT K=   1, I=   1, J=  31
     1 CALLS TO GCG PACKAGE FOR TRANSPORT TIME STEP   2 IN FLOW TIME STEP 446 STRESS PERIOD   1
     6 TOTAL ITERATIONS
 
 SOLVING FOR HEAD 
 FLOW MODEL IS TRANSIENT
 FLOW MODEL CONTAINS CONSTANT-HEAD CELLS


 MAXIMUM STEPSIZE DURING WHICH ANY PARTICLE CANNOT MOVE MORE THAN ONE CELL
 =  5.596    (WHEN MIN. R.F.=1)  AT K=   4, I=   1, J=  60

 MAXIMUM STEPSIZE WHICH MEETS STABILITY CRITERION OF THE ADVECTION TERM
 (FOR PURE FINITE-DIFFERENCE OPTION, MIXELM=0) 
 =  3.718    (WHEN MIN. R.F.=1)  AT K=   2, I=   1, J=  78


 TOTAL NUMBER OF POINT SOURCES/SINKS PRESENT IN THE FLOW MODEL =    62

 MAXIMUM STEPSIZE WHICH MEETS STABILITY CRITERION OF THE SINK & SOURCE TERM
 =  239.3    (WHEN MIN. R.F.=1)  AT K=   2, I=   1, J= 120

 MAXIMUM STEPSIZE WHICH MEETS STABILITY CRITERION OF THE DISPERSION TERM
 =  20.29    (WHEN MIN. R.F.=1)  AT K=   1, I=   1, J=  31
     1 CALLS TO GCG PACKAGE FOR TRANSPORT TIME STEP   3 IN FLOW TIME STEP 446 STRESS PERIOD   1
     6 TOTAL ITERATIONS
 
 SOLVING FOR HEAD 
 FLOW MODEL IS TRANSIENT
 FLOW MODEL CONTAINS CONSTANT-HEAD CELLS


 MAXIMUM STEPSIZE DURING WHICH ANY PARTICLE CANNOT MOVE MORE THAN ONE CELL
 =  5.596    (WHEN MIN. R.F.=1)  AT K=   4, I=   1, J=  60

 MAXIMUM STEPSIZE WHICH MEETS STABILITY CRITERION OF THE ADVECTION TERM
 (FOR PURE FINITE-DIFFERENCE OPTION, MIXELM=0) 
 =  3.836    (WHEN MIN. R.F.=1)  AT K=   2, I=   1, J=  43


 TOTAL NUMBER OF POINT SOURCES/SINKS PRESENT IN THE FLOW MODEL =    62

 MAXIMUM STEPSIZE WHICH MEETS STABILITY CRITERION OF THE SINK & SOURCE TERM
 =  240.9    (WHEN MIN. R.F.=1)  AT K=   2, I=   1, J= 120

 MAXIMUM STEPSIZE WHICH MEETS STABILITY CRITERION OF THE DISPERSION TERM
 =  20.29    (WHEN MIN. R.F.=1)  AT K=   1, I=   1, J=  31
     1 CALLS TO GCG PACKAGE FOR TRANSPORT TIME STEP   4 IN FLOW TIME STEP 446 STRESS PERIOD   1
     5 TOTAL ITERATIONS
  MAXIMUM CONCENTRATION CHANGES FOR EACH ITERATION:
  MAX. CHANGE LAYER,ROW,COL MAX. CHANGE LAYER,ROW,COL MAX. CHANGE LAYER,ROW,COL MAX. CHANGE LAYER,ROW,COL MAX. CHANGE LAYER,ROW,COL
 ------------------------------------------------------------------------------------------------------------------------------------
   0.2182E-01 (  2,  1, 79)  0.6221E-03 (  2,  1, 77)  0.2141E-04 (  3,  1, 77)  0.7734E-06 (  3,  1, 80)  0.2636E-07 (  5,  1, 80)


                                          ================================================
                                                         FROM TIME =   4460.0     TO    4470.0    

 
 SOLVING FOR HEAD 
 FLOW MODEL IS TRANSIENT
 FLOW MODEL CONTAINS CONSTANT-HEAD CELLS


 MAXIMUM STEPSIZE DURING WHICH ANY PARTICLE CANNOT MOVE MORE THAN ONE CELL
 =  5.599    (WHEN MIN. R.F.=1)  AT K=   4, I=   1, J=  60

 MAXIMUM STEPSIZE WHICH MEETS STABILITY CRITERION OF THE ADVECTION TERM
 (FOR PURE FINITE-DIFFERENCE OPTION, MIXELM=0) 
 =  3.776    (WHEN MIN. R.F.=1)  AT K=   2, I=   1, J=  43


 TOTAL NUMBER OF POINT SOURCES/SINKS PRESENT IN THE FLOW MODEL =    62

 MAXIMUM STEPSIZE WHICH MEETS STABILITY CRITERION OF THE SINK & SOURCE TERM
 =  250.8    (WHEN MIN. R.F.=1)  AT K=   2, I=   1, J= 120

 MAXIMUM STEPSIZE WHICH MEETS STABILITY CRITERION OF THE DISPERSION TERM
 =  20.29    (WHEN MIN. R.F.=1)  AT K=   1, I=   1, J=  31


     1 CALLS TO GCG PACKAGE FOR TRANSPORT TIME STEP   1 IN FLOW TIME STEP 447 STRESS PERIOD   1
     6 TOTAL ITERATIONS

 NO OUTPUT CONTROL FOR STRESS PERIOD    1   TIME STEP 447
 
 SOLVING FOR HEAD 
 FLOW MODEL IS TRANSIENT
 FLOW MODEL CONTAINS CONSTANT-HEAD CELLS


 MAXIMUM STEPSIZE DURING WHICH ANY PARTICLE CANNOT MOVE MORE THAN ONE CELL
 =  5.599    (WHEN MIN. R.F.=1)  AT K=   4, I=   1, J=  60

 MAXIMUM STEPSIZE WHICH MEETS STABILITY CRITERION OF THE ADVECTION TERM
 (FOR PURE FINITE-DIFFERENCE OPTION, MIXELM=0) 
 =  3.768    (WHEN MIN. R.F.=1)  AT K=   2, I=   1, J=  43


 TOTAL NUMBER OF POINT SOURCES/SINKS PRESENT IN THE FLOW MODEL =    62

 MAXIMUM STEPSIZE WHICH MEETS STABILITY CRITERION OF THE SINK & SOURCE TERM
 =  247.5    (WHEN MIN. R.F.=1)  AT K=   2, I=   1, J= 120

 MAXIMUM STEPSIZE WHICH MEETS STABILITY CRITERION OF THE DISPERSION TERM
 =  20.29    (WHEN MIN. R.F.=1)  AT K=   1, I=   1, J=  31
     1 CALLS TO GCG PACKAGE FOR TRANSPORT TIME STEP   2 IN FLOW TIME STEP 447 STRESS PERIOD   1
     6 TOTAL ITERATIONS
 
 SOLVING FOR HEAD 
 FLOW MODEL IS TRANSIENT
 FLOW MODEL CONTAINS CONSTANT-HEAD CELLS


 MAXIMUM STEPSIZE DURING WHICH ANY PARTICLE CANNOT MOVE MORE THAN ONE CELL
 =  5.599    (WHEN MIN. R.F.=1)  AT K=   4, I=   1, J=  60

 MAXIMUM STEPSIZE WHICH MEETS STABILITY CRITERION OF THE ADVECTION TERM
 (FOR PURE FINITE-DIFFERENCE OPTION, MIXELM=0) 
 =  3.862    (WHEN MIN. R.F.=1)  AT K=   2, I=   1, J=  43


 TOTAL NUMBER OF POINT SOURCES/SINKS PRESENT IN THE FLOW MODEL =    62

 MAXIMUM STEPSIZE WHICH MEETS STABILITY CRITERION OF THE SINK & SOURCE TERM
 =  254.3    (WHEN MIN. R.F.=1)  AT K=   2, I=   1, J= 120

 MAXIMUM STEPSIZE WHICH MEETS STABILITY CRITERION OF THE DISPERSION TERM
 =  20.29    (WHEN MIN. R.F.=1)  AT K=   1, I=   1, J=  31
     1 CALLS TO GCG PACKAGE FOR TRANSPORT TIME STEP   3 IN FLOW TIME STEP 447 STRESS PERIOD   1
     6 TOTAL ITERATIONS
 
 SOLVING FOR HEAD 
 FLOW MODEL IS TRANSIENT
 FLOW MODEL CONTAINS CONSTANT-HEAD CELLS


 MAXIMUM STEPSIZE DURING WHICH ANY PARTICLE CANNOT MOVE MORE THAN ONE CELL
 =  5.600    (WHEN MIN. R.F.=1)  AT K=   4, I=   1, J=  60

 MAXIMUM STEPSIZE WHICH MEETS STABILITY CRITERION OF THE ADVECTION TERM
 (FOR PURE FINITE-DIFFERENCE OPTION, MIXELM=0) 
 =  3.832    (WHEN MIN. R.F.=1)  AT K=   2, I=   1, J=  77


 TOTAL NUMBER OF POINT SOURCES/SINKS PRESENT IN THE FLOW MODEL =    62

 MAXIMUM STEPSIZE WHICH MEETS STABILITY CRITERION OF THE SINK & SOURCE TERM
 =  259.4    (WHEN MIN. R.F.=1)  AT K=   2, I=   1, J= 120

 MAXIMUM STEPSIZE WHICH MEETS STABILITY CRITERION OF THE DISPERSION TERM
 =  20.29    (WHEN MIN. R.F.=1)  AT K=   1, I=   1, J=  31
     1 CALLS TO GCG PACKAGE FOR TRANSPORT TIME STEP   4 IN FLOW TIME STEP 447 STRESS PERIOD   1
     5 TOTAL ITERATIONS
  MAXIMUM CONCENTRATION CHANGES FOR EACH ITERATION:
  MAX. CHANGE LAYER,ROW,COL MAX. CHANGE LAYER,ROW,COL MAX. CHANGE LAYER,ROW,COL MAX. CHANGE LAYER,ROW,COL MAX. CHANGE LAYER,ROW,COL
 ------------------------------------------------------------------------------------------------------------------------------------
   0.1653E-01 (  2,  1, 42)  0.3856E-03 (  2,  1, 78)  0.1176E-04 (  3,  1, 44)  0.3810E-06 (  3,  1, 79)  0.1189E-07 (  4,  1, 78)


                                          ================================================
                                                         FROM TIME =   4470.0     TO    4480.0    

 
 SOLVING FOR HEAD 
 FLOW MODEL IS TRANSIENT
 FLOW MODEL CONTAINS CONSTANT-HEAD CELLS


 MAXIMUM STEPSIZE DURING WHICH ANY PARTICLE CANNOT MOVE MORE THAN ONE CELL
 =  5.604    (WHEN MIN. R.F.=1)  AT K=   4, I=   1, J=  60

 MAXIMUM STEPSIZE WHICH MEETS STABILITY CRITERION OF THE ADVECTION TERM
 (FOR PURE FINITE-DIFFERENCE OPTION, MIXELM=0) 
 =  3.862    (WHEN MIN. R.F.=1)  AT K=   2, I=   1, J=  77


 TOTAL NUMBER OF POINT SOURCES/SINKS PRESENT IN THE FLOW MODEL =    62

 MAXIMUM STEPSIZE WHICH MEETS STABILITY CRITERION OF THE SINK & SOURCE TERM
 =  274.2    (WHEN MIN. R.F.=1)  AT K=   2, I=   1, J= 120

 MAXIMUM STEPSIZE WHICH MEETS STABILITY CRITERION OF THE DISPERSION TERM
 =  20.29    (WHEN MIN. R.F.=1)  AT K=   1, I=   1, J=  31


     1 CALLS TO GCG PACKAGE FOR TRANSPORT TIME STEP   1 IN FLOW TIME STEP 448 STRESS PERIOD   1
     6 TOTAL ITERATIONS

 NO OUTPUT CONTROL FOR STRESS PERIOD    1   TIME STEP 448
 
 SOLVING FOR HEAD 
 FLOW MODEL IS TRANSIENT
 FLOW MODEL CONTAINS CONSTANT-HEAD CELLS


 MAXIMUM STEPSIZE DURING WHICH ANY PARTICLE CANNOT MOVE MORE THAN ONE CELL
 =  5.606    (WHEN MIN. R.F.=1)  AT K=   4, I=   1, J=  60

 MAXIMUM STEPSIZE WHICH MEETS STABILITY CRITERION OF THE ADVECTION TERM
 (FOR PURE FINITE-DIFFERENCE OPTION, MIXELM=0) 
 =  3.987    (WHEN MIN. R.F.=1)  AT K=   2, I=   1, J=  77


 TOTAL NUMBER OF POINT SOURCES/SINKS PRESENT IN THE FLOW MODEL =    62

 MAXIMUM STEPSIZE WHICH MEETS STABILITY CRITERION OF THE SINK & SOURCE TERM
 =  267.1    (WHEN MIN. R.F.=1)  AT K=   2, I=   1, J= 120

 MAXIMUM STEPSIZE WHICH MEETS STABILITY CRITERION OF THE DISPERSION TERM
 =  20.29    (WHEN MIN. R.F.=1)  AT K=   1, I=   1, J=  31
     1 CALLS TO GCG PACKAGE FOR TRANSPORT TIME STEP   2 IN FLOW TIME STEP 448 STRESS PERIOD   1
     6 TOTAL ITERATIONS
 
 SOLVING FOR HEAD 
 FLOW MODEL IS TRANSIENT
 FLOW MODEL CONTAINS CONSTANT-HEAD CELLS


 MAXIMUM STEPSIZE DURING WHICH ANY PARTICLE CANNOT MOVE MORE THAN ONE CELL
 =  5.608    (WHEN MIN. R.F.=1)  AT K=   4, I=   1, J=  60

 MAXIMUM STEPSIZE WHICH MEETS STABILITY CRITERION OF THE ADVECTION TERM
 (FOR PURE FINITE-DIFFERENCE OPTION, MIXELM=0) 
 =  3.948    (WHEN MIN. R.F.=1)  AT K=   2, I=   1, J=  44


 TOTAL NUMBER OF POINT SOURCES/SINKS PRESENT IN THE FLOW MODEL =    62

 MAXIMUM STEPSIZE WHICH MEETS STABILITY CRITERION OF THE SINK & SOURCE TERM
 =  269.6    (WHEN MIN. R.F.=1)  AT K=   2, I=   1, J= 120

 MAXIMUM STEPSIZE WHICH MEETS STABILITY CRITERION OF THE DISPERSION TERM
 =  20.29    (WHEN MIN. R.F.=1)  AT K=   1, I=   1, J=  31
     1 CALLS TO GCG PACKAGE FOR TRANSPORT TIME STEP   3 IN FLOW TIME STEP 448 STRESS PERIOD   1
     6 TOTAL ITERATIONS
 
 SOLVING FOR HEAD 
 FLOW MODEL IS TRANSIENT
 FLOW MODEL CONTAINS CONSTANT-HEAD CELLS


 MAXIMUM STEPSIZE DURING WHICH ANY PARTICLE CANNOT MOVE MORE THAN ONE CELL
 =  5.611    (WHEN MIN. R.F.=1)  AT K=   4, I=   1, J=  60

 MAXIMUM STEPSIZE WHICH MEETS STABILITY CRITERION OF THE ADVECTION TERM
 (FOR PURE FINITE-DIFFERENCE OPTION, MIXELM=0) 
 =  3.955    (WHEN MIN. R.F.=1)  AT K=   2, I=   1, J=  44


 TOTAL NUMBER OF POINT SOURCES/SINKS PRESENT IN THE FLOW MODEL =    62

 MAXIMUM STEPSIZE WHICH MEETS STABILITY CRITERION OF THE SINK & SOURCE TERM
 =  268.2    (WHEN MIN. R.F.=1)  AT K=   2, I=   1, J= 120

 MAXIMUM STEPSIZE WHICH MEETS STABILITY CRITERION OF THE DISPERSION TERM
 =  20.29    (WHEN MIN. R.F.=1)  AT K=   1, I=   1, J=  31
     1 CALLS TO GCG PACKAGE FOR TRANSPORT TIME STEP   4 IN FLOW TIME STEP 448 STRESS PERIOD   1
     5 TOTAL ITERATIONS
  MAXIMUM CONCENTRATION CHANGES FOR EACH ITERATION:
  MAX. CHANGE LAYER,ROW,COL MAX. CHANGE LAYER,ROW,COL MAX. CHANGE LAYER,ROW,COL MAX. CHANGE LAYER,ROW,COL MAX. CHANGE LAYER,ROW,COL
 ------------------------------------------------------------------------------------------------------------------------------------
   0.1324E-01 (  2,  1, 31)  0.2965E-03 (  2,  1, 76)  0.6767E-05 (  3,  1, 46)  0.1872E-06 (  3,  1, 75)  0.5237E-08 (  4,  1, 75)


                                          ================================================
                                                         FROM TIME =   4480.0     TO    4490.0    

 
 SOLVING FOR HEAD 
 FLOW MODEL IS TRANSIENT
 FLOW MODEL CONTAINS CONSTANT-HEAD CELLS


 MAXIMUM STEPSIZE DURING WHICH ANY PARTICLE CANNOT MOVE MORE THAN ONE CELL
 =  5.615    (WHEN MIN. R.F.=1)  AT K=   4, I=   1, J=  60

 MAXIMUM STEPSIZE WHICH MEETS STABILITY CRITERION OF THE ADVECTION TERM
 (FOR PURE FINITE-DIFFERENCE OPTION, MIXELM=0) 
 =  3.993    (WHEN MIN. R.F.=1)  AT K=   2, I=   1, J=  44


 TOTAL NUMBER OF POINT SOURCES/SINKS PRESENT IN THE FLOW MODEL =    62

 MAXIMUM STEPSIZE WHICH MEETS STABILITY CRITERION OF THE SINK & SOURCE TERM
 =  269.2    (WHEN MIN. R.F.=1)  AT K=   2, I=   1, J= 120

 MAXIMUM STEPSIZE WHICH MEETS STABILITY CRITERION OF THE DISPERSION TERM
 =  20.29    (WHEN MIN. R.F.=1)  AT K=   1, I=   1, J=  31


     1 CALLS TO GCG PACKAGE FOR TRANSPORT TIME STEP   1 IN FLOW TIME STEP 449 STRESS PERIOD   1
     3 TOTAL ITERATIONS

 NO OUTPUT CONTROL FOR STRESS PERIOD    1   TIME STEP 449



 >>>>>>>>>>>>>>>>>>>>>>>>>>>>>>>>>>>>>>>>>>>>>>>>>>>>>>>FOR COMPONENT NO. 01<<<<<<<<<<<<<<<<<<<<<<<<<<<<<<<<<<<<<<<<<<<<<<<<<<<<<<<


                                            -------------------------------------------
                                                      TRANSPORT STEP NO.    1
                                            -------------------------------------------

 TOTAL ELAPSED TIME SINCE BEGINNING OF SIMULATION =   4480.300    D   
 .....................................................................

                     CUMULATIVE MASS BUDGETS AT END OF TRANSPORT STEP    1, TIME STEP  449, STRESS PERIOD    1
                     ------------------------------------------------------------------------------------------

                                                             IN                           OUT
                                                      ----------------             ----------------
                               CONSTANT CONCENTRATION:    2723660.                   -1806397.    
                                        CONSTANT HEAD:    0.000000                   -591.0135    
                               MASS STOR (FLOW MODEL):    306.4469                   -497.9811    
                                MASS STORAGE (SOLUTE):    4608225.                   -5524706.    
                            ---------------------------------------------------------------------------
                                              [TOTAL]:    7332191.     KG            -7332191.     KG  

                                                          NET (IN - OUT):  -0.1005721E-01
                                                   DISCREPANCY (PERCENT):  -0.1371652E-06
 
 SOLVING FOR HEAD 
 FLOW MODEL IS TRANSIENT
 FLOW MODEL CONTAINS CONSTANT-HEAD CELLS


 MAXIMUM STEPSIZE DURING WHICH ANY PARTICLE CANNOT MOVE MORE THAN ONE CELL
 =  5.617    (WHEN MIN. R.F.=1)  AT K=   4, I=   1, J=  60

 MAXIMUM STEPSIZE WHICH MEETS STABILITY CRITERION OF THE ADVECTION TERM
 (FOR PURE FINITE-DIFFERENCE OPTION, MIXELM=0) 
 =  4.003    (WHEN MIN. R.F.=1)  AT K=   2, I=   1, J=  44


 TOTAL NUMBER OF POINT SOURCES/SINKS PRESENT IN THE FLOW MODEL =    62

 MAXIMUM STEPSIZE WHICH MEETS STABILITY CRITERION OF THE SINK & SOURCE TERM
 =  294.1    (WHEN MIN. R.F.=1)  AT K=   2, I=   1, J= 120

 MAXIMUM STEPSIZE WHICH MEETS STABILITY CRITERION OF THE DISPERSION TERM
 =  20.29    (WHEN MIN. R.F.=1)  AT K=   1, I=   1, J=  31
     1 CALLS TO GCG PACKAGE FOR TRANSPORT TIME STEP   2 IN FLOW TIME STEP 449 STRESS PERIOD   1
     6 TOTAL ITERATIONS
 
 SOLVING FOR HEAD 
 FLOW MODEL IS TRANSIENT
 FLOW MODEL CONTAINS CONSTANT-HEAD CELLS


 MAXIMUM STEPSIZE DURING WHICH ANY PARTICLE CANNOT MOVE MORE THAN ONE CELL
 =  5.620    (WHEN MIN. R.F.=1)  AT K=   4, I=   1, J=  60

 MAXIMUM STEPSIZE WHICH MEETS STABILITY CRITERION OF THE ADVECTION TERM
 (FOR PURE FINITE-DIFFERENCE OPTION, MIXELM=0) 
 =  4.184    (WHEN MIN. R.F.=1)  AT K=   2, I=   1, J=  44


 TOTAL NUMBER OF POINT SOURCES/SINKS PRESENT IN THE FLOW MODEL =    62

 MAXIMUM STEPSIZE WHICH MEETS STABILITY CRITERION OF THE SINK & SOURCE TERM
 =  276.2    (WHEN MIN. R.F.=1)  AT K=   2, I=   1, J= 120

 MAXIMUM STEPSIZE WHICH MEETS STABILITY CRITERION OF THE DISPERSION TERM
 =  20.29    (WHEN MIN. R.F.=1)  AT K=   1, I=   1, J=  31
     1 CALLS TO GCG PACKAGE FOR TRANSPORT TIME STEP   3 IN FLOW TIME STEP 449 STRESS PERIOD   1
     6 TOTAL ITERATIONS
 
 SOLVING FOR HEAD 
 FLOW MODEL IS TRANSIENT
 FLOW MODEL CONTAINS CONSTANT-HEAD CELLS


 MAXIMUM STEPSIZE DURING WHICH ANY PARTICLE CANNOT MOVE MORE THAN ONE CELL
 =  5.623    (WHEN MIN. R.F.=1)  AT K=   4, I=   1, J=  60

 MAXIMUM STEPSIZE WHICH MEETS STABILITY CRITERION OF THE ADVECTION TERM
 (FOR PURE FINITE-DIFFERENCE OPTION, MIXELM=0) 
 =  4.268    (WHEN MIN. R.F.=1)  AT K=   2, I=   1, J=  76


 TOTAL NUMBER OF POINT SOURCES/SINKS PRESENT IN THE FLOW MODEL =    62

 MAXIMUM STEPSIZE WHICH MEETS STABILITY CRITERION OF THE SINK & SOURCE TERM
 =  277.4    (WHEN MIN. R.F.=1)  AT K=   2, I=   1, J= 120

 MAXIMUM STEPSIZE WHICH MEETS STABILITY CRITERION OF THE DISPERSION TERM
 =  20.29    (WHEN MIN. R.F.=1)  AT K=   1, I=   1, J=  31
     1 CALLS TO GCG PACKAGE FOR TRANSPORT TIME STEP   4 IN FLOW TIME STEP 449 STRESS PERIOD   1
     6 TOTAL ITERATIONS
 
 SOLVING FOR HEAD 
 FLOW MODEL IS TRANSIENT
 FLOW MODEL CONTAINS CONSTANT-HEAD CELLS


 MAXIMUM STEPSIZE DURING WHICH ANY PARTICLE CANNOT MOVE MORE THAN ONE CELL
 =  5.628    (WHEN MIN. R.F.=1)  AT K=   4, I=   1, J=  60

 MAXIMUM STEPSIZE WHICH MEETS STABILITY CRITERION OF THE ADVECTION TERM
 (FOR PURE FINITE-DIFFERENCE OPTION, MIXELM=0) 
 =  4.321    (WHEN MIN. R.F.=1)  AT K=   2, I=   1, J=  76


 TOTAL NUMBER OF POINT SOURCES/SINKS PRESENT IN THE FLOW MODEL =    62

 MAXIMUM STEPSIZE WHICH MEETS STABILITY CRITERION OF THE SINK & SOURCE TERM
 =  273.0    (WHEN MIN. R.F.=1)  AT K=   2, I=   1, J= 120

 MAXIMUM STEPSIZE WHICH MEETS STABILITY CRITERION OF THE DISPERSION TERM
 =  20.29    (WHEN MIN. R.F.=1)  AT K=   1, I=   1, J=  31
     1 CALLS TO GCG PACKAGE FOR TRANSPORT TIME STEP   5 IN FLOW TIME STEP 449 STRESS PERIOD   1
     4 TOTAL ITERATIONS
  MAXIMUM CONCENTRATION CHANGES FOR EACH ITERATION:
  MAX. CHANGE LAYER,ROW,COL MAX. CHANGE LAYER,ROW,COL MAX. CHANGE LAYER,ROW,COL MAX. CHANGE LAYER,ROW,COL MAX. CHANGE LAYER,ROW,COL
 ------------------------------------------------------------------------------------------------------------------------------------
   0.6678E-02 (  2,  1, 77)  0.5818E-04 (  2,  1, 77)  0.8250E-06 (  2,  1, 78)  0.1222E-07 (  3,  1, 78)


                                          ================================================
                                                         FROM TIME =   4490.0     TO    4500.0    

 
 SOLVING FOR HEAD 
 FLOW MODEL IS TRANSIENT
 FLOW MODEL CONTAINS CONSTANT-HEAD CELLS


 MAXIMUM STEPSIZE DURING WHICH ANY PARTICLE CANNOT MOVE MORE THAN ONE CELL
 =  5.631    (WHEN MIN. R.F.=1)  AT K=   4, I=   1, J=  60

 MAXIMUM STEPSIZE WHICH MEETS STABILITY CRITERION OF THE ADVECTION TERM
 (FOR PURE FINITE-DIFFERENCE OPTION, MIXELM=0) 
 =  4.362    (WHEN MIN. R.F.=1)  AT K=   2, I=   1, J=  76


 TOTAL NUMBER OF POINT SOURCES/SINKS PRESENT IN THE FLOW MODEL =    62

 MAXIMUM STEPSIZE WHICH MEETS STABILITY CRITERION OF THE SINK & SOURCE TERM
 =  292.5    (WHEN MIN. R.F.=1)  AT K=   2, I=   1, J= 120

 MAXIMUM STEPSIZE WHICH MEETS STABILITY CRITERION OF THE DISPERSION TERM
 =  20.29    (WHEN MIN. R.F.=1)  AT K=   1, I=   1, J=  31


     1 CALLS TO GCG PACKAGE FOR TRANSPORT TIME STEP   1 IN FLOW TIME STEP 450 STRESS PERIOD   1
     6 TOTAL ITERATIONS

 NO OUTPUT CONTROL FOR STRESS PERIOD    1   TIME STEP 450
 
 SOLVING FOR HEAD 
 FLOW MODEL IS TRANSIENT
 FLOW MODEL CONTAINS CONSTANT-HEAD CELLS


 MAXIMUM STEPSIZE DURING WHICH ANY PARTICLE CANNOT MOVE MORE THAN ONE CELL
 =  5.638    (WHEN MIN. R.F.=1)  AT K=   4, I=   1, J=  60

 MAXIMUM STEPSIZE WHICH MEETS STABILITY CRITERION OF THE ADVECTION TERM
 (FOR PURE FINITE-DIFFERENCE OPTION, MIXELM=0) 
 =  4.369    (WHEN MIN. R.F.=1)  AT K=   2, I=   1, J=  45


 TOTAL NUMBER OF POINT SOURCES/SINKS PRESENT IN THE FLOW MODEL =    62

 MAXIMUM STEPSIZE WHICH MEETS STABILITY CRITERION OF THE SINK & SOURCE TERM
 =  278.3    (WHEN MIN. R.F.=1)  AT K=   2, I=   1, J= 120

 MAXIMUM STEPSIZE WHICH MEETS STABILITY CRITERION OF THE DISPERSION TERM
 =  20.29    (WHEN MIN. R.F.=1)  AT K=   1, I=   1, J=  31
     1 CALLS TO GCG PACKAGE FOR TRANSPORT TIME STEP   2 IN FLOW TIME STEP 450 STRESS PERIOD   1
     6 TOTAL ITERATIONS
 
 SOLVING FOR HEAD 
 FLOW MODEL IS TRANSIENT
 FLOW MODEL CONTAINS CONSTANT-HEAD CELLS


 MAXIMUM STEPSIZE DURING WHICH ANY PARTICLE CANNOT MOVE MORE THAN ONE CELL
 =  5.646    (WHEN MIN. R.F.=1)  AT K=   4, I=   1, J=  60

 MAXIMUM STEPSIZE WHICH MEETS STABILITY CRITERION OF THE ADVECTION TERM
 (FOR PURE FINITE-DIFFERENCE OPTION, MIXELM=0) 
 =  4.355    (WHEN MIN. R.F.=1)  AT K=   2, I=   1, J=  45


 TOTAL NUMBER OF POINT SOURCES/SINKS PRESENT IN THE FLOW MODEL =    62

 MAXIMUM STEPSIZE WHICH MEETS STABILITY CRITERION OF THE SINK & SOURCE TERM
 =  276.2    (WHEN MIN. R.F.=1)  AT K=   2, I=   1, J= 120

 MAXIMUM STEPSIZE WHICH MEETS STABILITY CRITERION OF THE DISPERSION TERM
 =  20.29    (WHEN MIN. R.F.=1)  AT K=   1, I=   1, J=  31
     1 CALLS TO GCG PACKAGE FOR TRANSPORT TIME STEP   3 IN FLOW TIME STEP 450 STRESS PERIOD   1
     6 TOTAL ITERATIONS
 
 SOLVING FOR HEAD 
 FLOW MODEL IS TRANSIENT
 FLOW MODEL CONTAINS CONSTANT-HEAD CELLS


 MAXIMUM STEPSIZE DURING WHICH ANY PARTICLE CANNOT MOVE MORE THAN ONE CELL
 =  5.656    (WHEN MIN. R.F.=1)  AT K=   4, I=   1, J=  60

 MAXIMUM STEPSIZE WHICH MEETS STABILITY CRITERION OF THE ADVECTION TERM
 (FOR PURE FINITE-DIFFERENCE OPTION, MIXELM=0) 
 =  4.332    (WHEN MIN. R.F.=1)  AT K=   2, I=   1, J=  75


 TOTAL NUMBER OF POINT SOURCES/SINKS PRESENT IN THE FLOW MODEL =    62

 MAXIMUM STEPSIZE WHICH MEETS STABILITY CRITERION OF THE SINK & SOURCE TERM
 =  267.5    (WHEN MIN. R.F.=1)  AT K=   2, I=   1, J= 120

 MAXIMUM STEPSIZE WHICH MEETS STABILITY CRITERION OF THE DISPERSION TERM
 =  20.29    (WHEN MIN. R.F.=1)  AT K=   1, I=   1, J=  31
     1 CALLS TO GCG PACKAGE FOR TRANSPORT TIME STEP   4 IN FLOW TIME STEP 450 STRESS PERIOD   1
     3 TOTAL ITERATIONS
  MAXIMUM CONCENTRATION CHANGES FOR EACH ITERATION:
  MAX. CHANGE LAYER,ROW,COL MAX. CHANGE LAYER,ROW,COL MAX. CHANGE LAYER,ROW,COL MAX. CHANGE LAYER,ROW,COL MAX. CHANGE LAYER,ROW,COL
 ------------------------------------------------------------------------------------------------------------------------------------
   0.2497E-02 (  2,  1, 83)  0.9585E-05 (  2,  1, 83)  0.3839E-07 (  2,  1, 84)


                                          ================================================
                                                         FROM TIME =   4500.0     TO    4510.0    

 
 SOLVING FOR HEAD 
 FLOW MODEL IS TRANSIENT
 FLOW MODEL CONTAINS CONSTANT-HEAD CELLS


 MAXIMUM STEPSIZE DURING WHICH ANY PARTICLE CANNOT MOVE MORE THAN ONE CELL
 =  5.658    (WHEN MIN. R.F.=1)  AT K=   4, I=   1, J=  60

 MAXIMUM STEPSIZE WHICH MEETS STABILITY CRITERION OF THE ADVECTION TERM
 (FOR PURE FINITE-DIFFERENCE OPTION, MIXELM=0) 
 =  4.320    (WHEN MIN. R.F.=1)  AT K=   2, I=   1, J=  75


 TOTAL NUMBER OF POINT SOURCES/SINKS PRESENT IN THE FLOW MODEL =    62

 MAXIMUM STEPSIZE WHICH MEETS STABILITY CRITERION OF THE SINK & SOURCE TERM
 =  289.9    (WHEN MIN. R.F.=1)  AT K=   2, I=   1, J= 120

 MAXIMUM STEPSIZE WHICH MEETS STABILITY CRITERION OF THE DISPERSION TERM
 =  20.29    (WHEN MIN. R.F.=1)  AT K=   1, I=   1, J=  31


     1 CALLS TO GCG PACKAGE FOR TRANSPORT TIME STEP   1 IN FLOW TIME STEP 451 STRESS PERIOD   1
     6 TOTAL ITERATIONS

 NO OUTPUT CONTROL FOR STRESS PERIOD    1   TIME STEP 451
 
 SOLVING FOR HEAD 
 FLOW MODEL IS TRANSIENT
 FLOW MODEL CONTAINS CONSTANT-HEAD CELLS


 MAXIMUM STEPSIZE DURING WHICH ANY PARTICLE CANNOT MOVE MORE THAN ONE CELL
 =  5.618    (WHEN MIN. R.F.=1)  AT K=   4, I=   1, J=  74

 MAXIMUM STEPSIZE WHICH MEETS STABILITY CRITERION OF THE ADVECTION TERM
 (FOR PURE FINITE-DIFFERENCE OPTION, MIXELM=0) 
 =  4.209    (WHEN MIN. R.F.=1)  AT K=   2, I=   1, J=  75


 TOTAL NUMBER OF POINT SOURCES/SINKS PRESENT IN THE FLOW MODEL =    62

 MAXIMUM STEPSIZE WHICH MEETS STABILITY CRITERION OF THE SINK & SOURCE TERM
 =  271.6    (WHEN MIN. R.F.=1)  AT K=   2, I=   1, J= 120

 MAXIMUM STEPSIZE WHICH MEETS STABILITY CRITERION OF THE DISPERSION TERM
 =  20.29    (WHEN MIN. R.F.=1)  AT K=   1, I=   1, J=  31
     1 CALLS TO GCG PACKAGE FOR TRANSPORT TIME STEP   2 IN FLOW TIME STEP 451 STRESS PERIOD   1
     6 TOTAL ITERATIONS
 
 SOLVING FOR HEAD 
 FLOW MODEL IS TRANSIENT
 FLOW MODEL CONTAINS CONSTANT-HEAD CELLS


 MAXIMUM STEPSIZE DURING WHICH ANY PARTICLE CANNOT MOVE MORE THAN ONE CELL
 =  5.359    (WHEN MIN. R.F.=1)  AT K=   4, I=   1, J=  74

 MAXIMUM STEPSIZE WHICH MEETS STABILITY CRITERION OF THE ADVECTION TERM
 (FOR PURE FINITE-DIFFERENCE OPTION, MIXELM=0) 
 =  4.070    (WHEN MIN. R.F.=1)  AT K=   2, I=   1, J=  81


 TOTAL NUMBER OF POINT SOURCES/SINKS PRESENT IN THE FLOW MODEL =    62

 MAXIMUM STEPSIZE WHICH MEETS STABILITY CRITERION OF THE SINK & SOURCE TERM
 =  269.9    (WHEN MIN. R.F.=1)  AT K=   2, I=   1, J= 120

 MAXIMUM STEPSIZE WHICH MEETS STABILITY CRITERION OF THE DISPERSION TERM
 =  20.29    (WHEN MIN. R.F.=1)  AT K=   1, I=   1, J=  31
     1 CALLS TO GCG PACKAGE FOR TRANSPORT TIME STEP   3 IN FLOW TIME STEP 451 STRESS PERIOD   1
     6 TOTAL ITERATIONS
 
 SOLVING FOR HEAD 
 FLOW MODEL IS TRANSIENT
 FLOW MODEL CONTAINS CONSTANT-HEAD CELLS


 MAXIMUM STEPSIZE DURING WHICH ANY PARTICLE CANNOT MOVE MORE THAN ONE CELL
 =  5.173    (WHEN MIN. R.F.=1)  AT K=   4, I=   1, J=  74

 MAXIMUM STEPSIZE WHICH MEETS STABILITY CRITERION OF THE ADVECTION TERM
 (FOR PURE FINITE-DIFFERENCE OPTION, MIXELM=0) 
 =  3.874    (WHEN MIN. R.F.=1)  AT K=   2, I=   1, J=  81


 TOTAL NUMBER OF POINT SOURCES/SINKS PRESENT IN THE FLOW MODEL =    62

 MAXIMUM STEPSIZE WHICH MEETS STABILITY CRITERION OF THE SINK & SOURCE TERM
 =  266.6    (WHEN MIN. R.F.=1)  AT K=   2, I=   1, J= 120

 MAXIMUM STEPSIZE WHICH MEETS STABILITY CRITERION OF THE DISPERSION TERM
 =  20.29    (WHEN MIN. R.F.=1)  AT K=   1, I=   1, J=  31
     1 CALLS TO GCG PACKAGE FOR TRANSPORT TIME STEP   4 IN FLOW TIME STEP 451 STRESS PERIOD   1
     4 TOTAL ITERATIONS
  MAXIMUM CONCENTRATION CHANGES FOR EACH ITERATION:
  MAX. CHANGE LAYER,ROW,COL MAX. CHANGE LAYER,ROW,COL MAX. CHANGE LAYER,ROW,COL MAX. CHANGE LAYER,ROW,COL MAX. CHANGE LAYER,ROW,COL
 ------------------------------------------------------------------------------------------------------------------------------------
   0.4146E-02 (  2,  1, 76)  0.2526E-04 (  2,  1, 82)  0.1684E-06 (  2,  1, 77)  0.1460E-08 (  3,  1, 77)


                                          ================================================
                                                         FROM TIME =   4510.0     TO    4520.0    

 
 SOLVING FOR HEAD 
 FLOW MODEL IS TRANSIENT
 FLOW MODEL CONTAINS CONSTANT-HEAD CELLS


 MAXIMUM STEPSIZE DURING WHICH ANY PARTICLE CANNOT MOVE MORE THAN ONE CELL
 =  5.155    (WHEN MIN. R.F.=1)  AT K=   4, I=   1, J=  74

 MAXIMUM STEPSIZE WHICH MEETS STABILITY CRITERION OF THE ADVECTION TERM
 (FOR PURE FINITE-DIFFERENCE OPTION, MIXELM=0) 
 =  3.872    (WHEN MIN. R.F.=1)  AT K=   2, I=   1, J=  81


 TOTAL NUMBER OF POINT SOURCES/SINKS PRESENT IN THE FLOW MODEL =    62

 MAXIMUM STEPSIZE WHICH MEETS STABILITY CRITERION OF THE SINK & SOURCE TERM
 =  293.4    (WHEN MIN. R.F.=1)  AT K=   2, I=   1, J= 120

 MAXIMUM STEPSIZE WHICH MEETS STABILITY CRITERION OF THE DISPERSION TERM
 =  20.29    (WHEN MIN. R.F.=1)  AT K=   1, I=   1, J=  31


     1 CALLS TO GCG PACKAGE FOR TRANSPORT TIME STEP   1 IN FLOW TIME STEP 452 STRESS PERIOD   1
     6 TOTAL ITERATIONS

 NO OUTPUT CONTROL FOR STRESS PERIOD    1   TIME STEP 452
 
 SOLVING FOR HEAD 
 FLOW MODEL IS TRANSIENT
 FLOW MODEL CONTAINS CONSTANT-HEAD CELLS


 MAXIMUM STEPSIZE DURING WHICH ANY PARTICLE CANNOT MOVE MORE THAN ONE CELL
 =  5.040    (WHEN MIN. R.F.=1)  AT K=   4, I=   1, J=  74

 MAXIMUM STEPSIZE WHICH MEETS STABILITY CRITERION OF THE ADVECTION TERM
 (FOR PURE FINITE-DIFFERENCE OPTION, MIXELM=0) 
 =  3.944    (WHEN MIN. R.F.=1)  AT K=   2, I=   1, J=  81


 TOTAL NUMBER OF POINT SOURCES/SINKS PRESENT IN THE FLOW MODEL =    62

 MAXIMUM STEPSIZE WHICH MEETS STABILITY CRITERION OF THE SINK & SOURCE TERM
 =  279.8    (WHEN MIN. R.F.=1)  AT K=   2, I=   1, J= 120

 MAXIMUM STEPSIZE WHICH MEETS STABILITY CRITERION OF THE DISPERSION TERM
 =  20.29    (WHEN MIN. R.F.=1)  AT K=   1, I=   1, J=  31
     1 CALLS TO GCG PACKAGE FOR TRANSPORT TIME STEP   2 IN FLOW TIME STEP 452 STRESS PERIOD   1
     6 TOTAL ITERATIONS
 
 SOLVING FOR HEAD 
 FLOW MODEL IS TRANSIENT
 FLOW MODEL CONTAINS CONSTANT-HEAD CELLS


 MAXIMUM STEPSIZE DURING WHICH ANY PARTICLE CANNOT MOVE MORE THAN ONE CELL
 =  4.967    (WHEN MIN. R.F.=1)  AT K=   4, I=   1, J=  74

 MAXIMUM STEPSIZE WHICH MEETS STABILITY CRITERION OF THE ADVECTION TERM
 (FOR PURE FINITE-DIFFERENCE OPTION, MIXELM=0) 
 =  4.006    (WHEN MIN. R.F.=1)  AT K=   2, I=   1, J=  80


 TOTAL NUMBER OF POINT SOURCES/SINKS PRESENT IN THE FLOW MODEL =    62

 MAXIMUM STEPSIZE WHICH MEETS STABILITY CRITERION OF THE SINK & SOURCE TERM
 =  269.1    (WHEN MIN. R.F.=1)  AT K=   2, I=   1, J= 120

 MAXIMUM STEPSIZE WHICH MEETS STABILITY CRITERION OF THE DISPERSION TERM
 =  20.29    (WHEN MIN. R.F.=1)  AT K=   1, I=   1, J=  31
     1 CALLS TO GCG PACKAGE FOR TRANSPORT TIME STEP   3 IN FLOW TIME STEP 452 STRESS PERIOD   1
     6 TOTAL ITERATIONS
 
 SOLVING FOR HEAD 
 FLOW MODEL IS TRANSIENT
 FLOW MODEL CONTAINS CONSTANT-HEAD CELLS


 MAXIMUM STEPSIZE DURING WHICH ANY PARTICLE CANNOT MOVE MORE THAN ONE CELL
 =  4.937    (WHEN MIN. R.F.=1)  AT K=   4, I=   1, J=  74

 MAXIMUM STEPSIZE WHICH MEETS STABILITY CRITERION OF THE ADVECTION TERM
 (FOR PURE FINITE-DIFFERENCE OPTION, MIXELM=0) 
 =  3.690    (WHEN MIN. R.F.=1)  AT K=   2, I=   1, J=  80


 TOTAL NUMBER OF POINT SOURCES/SINKS PRESENT IN THE FLOW MODEL =    62

 MAXIMUM STEPSIZE WHICH MEETS STABILITY CRITERION OF THE SINK & SOURCE TERM
 =  264.3    (WHEN MIN. R.F.=1)  AT K=   2, I=   1, J= 120

 MAXIMUM STEPSIZE WHICH MEETS STABILITY CRITERION OF THE DISPERSION TERM
 =  20.29    (WHEN MIN. R.F.=1)  AT K=   1, I=   1, J=  31
     1 CALLS TO GCG PACKAGE FOR TRANSPORT TIME STEP   4 IN FLOW TIME STEP 452 STRESS PERIOD   1
     5 TOTAL ITERATIONS
  MAXIMUM CONCENTRATION CHANGES FOR EACH ITERATION:
  MAX. CHANGE LAYER,ROW,COL MAX. CHANGE LAYER,ROW,COL MAX. CHANGE LAYER,ROW,COL MAX. CHANGE LAYER,ROW,COL MAX. CHANGE LAYER,ROW,COL
 ------------------------------------------------------------------------------------------------------------------------------------
   0.1349E-01 (  2,  1, 38)  0.2468E-03 (  2,  1, 81)  0.5534E-05 (  3,  1, 30)  0.2300E-06 (  3,  1, 77)  0.5190E-08 (  4,  1, 77)


                                          ================================================
                                                         FROM TIME =   4520.0     TO    4530.0    

 
 SOLVING FOR HEAD 
 FLOW MODEL IS TRANSIENT
 FLOW MODEL CONTAINS CONSTANT-HEAD CELLS


 MAXIMUM STEPSIZE DURING WHICH ANY PARTICLE CANNOT MOVE MORE THAN ONE CELL
 =  4.938    (WHEN MIN. R.F.=1)  AT K=   4, I=   1, J=  74

 MAXIMUM STEPSIZE WHICH MEETS STABILITY CRITERION OF THE ADVECTION TERM
 (FOR PURE FINITE-DIFFERENCE OPTION, MIXELM=0) 
 =  3.641    (WHEN MIN. R.F.=1)  AT K=   2, I=   1, J=  80


 TOTAL NUMBER OF POINT SOURCES/SINKS PRESENT IN THE FLOW MODEL =    62

 MAXIMUM STEPSIZE WHICH MEETS STABILITY CRITERION OF THE SINK & SOURCE TERM
 =  281.7    (WHEN MIN. R.F.=1)  AT K=   2, I=   1, J= 120

 MAXIMUM STEPSIZE WHICH MEETS STABILITY CRITERION OF THE DISPERSION TERM
 =  20.29    (WHEN MIN. R.F.=1)  AT K=   1, I=   1, J=  31


     1 CALLS TO GCG PACKAGE FOR TRANSPORT TIME STEP   1 IN FLOW TIME STEP 453 STRESS PERIOD   1
     6 TOTAL ITERATIONS

 NO OUTPUT CONTROL FOR STRESS PERIOD    1   TIME STEP 453
 
 SOLVING FOR HEAD 
 FLOW MODEL IS TRANSIENT
 FLOW MODEL CONTAINS CONSTANT-HEAD CELLS


 MAXIMUM STEPSIZE DURING WHICH ANY PARTICLE CANNOT MOVE MORE THAN ONE CELL
 =  4.967    (WHEN MIN. R.F.=1)  AT K=   4, I=   1, J=  74

 MAXIMUM STEPSIZE WHICH MEETS STABILITY CRITERION OF THE ADVECTION TERM
 (FOR PURE FINITE-DIFFERENCE OPTION, MIXELM=0) 
 =  3.605    (WHEN MIN. R.F.=1)  AT K=   2, I=   1, J=  80


 TOTAL NUMBER OF POINT SOURCES/SINKS PRESENT IN THE FLOW MODEL =    62

 MAXIMUM STEPSIZE WHICH MEETS STABILITY CRITERION OF THE SINK & SOURCE TERM
 =  274.6    (WHEN MIN. R.F.=1)  AT K=   2, I=   1, J= 120

 MAXIMUM STEPSIZE WHICH MEETS STABILITY CRITERION OF THE DISPERSION TERM
 =  20.29    (WHEN MIN. R.F.=1)  AT K=   1, I=   1, J=  31
     1 CALLS TO GCG PACKAGE FOR TRANSPORT TIME STEP   2 IN FLOW TIME STEP 453 STRESS PERIOD   1
     6 TOTAL ITERATIONS
 
 SOLVING FOR HEAD 
 FLOW MODEL IS TRANSIENT
 FLOW MODEL CONTAINS CONSTANT-HEAD CELLS


 MAXIMUM STEPSIZE DURING WHICH ANY PARTICLE CANNOT MOVE MORE THAN ONE CELL
 =  5.038    (WHEN MIN. R.F.=1)  AT K=   4, I=   1, J=  74

 MAXIMUM STEPSIZE WHICH MEETS STABILITY CRITERION OF THE ADVECTION TERM
 (FOR PURE FINITE-DIFFERENCE OPTION, MIXELM=0) 
 =  3.767    (WHEN MIN. R.F.=1)  AT K=   2, I=   1, J=  80


 TOTAL NUMBER OF POINT SOURCES/SINKS PRESENT IN THE FLOW MODEL =    62

 MAXIMUM STEPSIZE WHICH MEETS STABILITY CRITERION OF THE SINK & SOURCE TERM
 =  287.1    (WHEN MIN. R.F.=1)  AT K=   2, I=   1, J= 120

 MAXIMUM STEPSIZE WHICH MEETS STABILITY CRITERION OF THE DISPERSION TERM
 =  20.29    (WHEN MIN. R.F.=1)  AT K=   1, I=   1, J=  31
     1 CALLS TO GCG PACKAGE FOR TRANSPORT TIME STEP   3 IN FLOW TIME STEP 453 STRESS PERIOD   1
     6 TOTAL ITERATIONS
 
 SOLVING FOR HEAD 
 FLOW MODEL IS TRANSIENT
 FLOW MODEL CONTAINS CONSTANT-HEAD CELLS


 MAXIMUM STEPSIZE DURING WHICH ANY PARTICLE CANNOT MOVE MORE THAN ONE CELL
 =  5.058    (WHEN MIN. R.F.=1)  AT K=   4, I=   1, J=  47

 MAXIMUM STEPSIZE WHICH MEETS STABILITY CRITERION OF THE ADVECTION TERM
 (FOR PURE FINITE-DIFFERENCE OPTION, MIXELM=0) 
 =  3.865    (WHEN MIN. R.F.=1)  AT K=   2, I=   1, J=  79


 TOTAL NUMBER OF POINT SOURCES/SINKS PRESENT IN THE FLOW MODEL =    62

 MAXIMUM STEPSIZE WHICH MEETS STABILITY CRITERION OF THE SINK & SOURCE TERM
 =  293.1    (WHEN MIN. R.F.=1)  AT K=   2, I=   1, J= 120

 MAXIMUM STEPSIZE WHICH MEETS STABILITY CRITERION OF THE DISPERSION TERM
 =  20.29    (WHEN MIN. R.F.=1)  AT K=   1, I=   1, J=  31
     1 CALLS TO GCG PACKAGE FOR TRANSPORT TIME STEP   4 IN FLOW TIME STEP 453 STRESS PERIOD   1
     5 TOTAL ITERATIONS
  MAXIMUM CONCENTRATION CHANGES FOR EACH ITERATION:
  MAX. CHANGE LAYER,ROW,COL MAX. CHANGE LAYER,ROW,COL MAX. CHANGE LAYER,ROW,COL MAX. CHANGE LAYER,ROW,COL MAX. CHANGE LAYER,ROW,COL
 ------------------------------------------------------------------------------------------------------------------------------------
   0.2158E-01 (  2,  1, 81)  0.6372E-03 (  2,  1, 79)  0.2562E-04 (  3,  1, 79)  0.9081E-06 (  3,  1, 76)  0.2872E-07 (  4,  1, 78)


                                          ================================================
                                                         FROM TIME =   4530.0     TO    4540.0    

 
 SOLVING FOR HEAD 
 FLOW MODEL IS TRANSIENT
 FLOW MODEL CONTAINS CONSTANT-HEAD CELLS


 MAXIMUM STEPSIZE DURING WHICH ANY PARTICLE CANNOT MOVE MORE THAN ONE CELL
 =  5.085    (WHEN MIN. R.F.=1)  AT K=   4, I=   1, J=  47

 MAXIMUM STEPSIZE WHICH MEETS STABILITY CRITERION OF THE ADVECTION TERM
 (FOR PURE FINITE-DIFFERENCE OPTION, MIXELM=0) 
 =  3.699    (WHEN MIN. R.F.=1)  AT K=   2, I=   1, J=  79


 TOTAL NUMBER OF POINT SOURCES/SINKS PRESENT IN THE FLOW MODEL =    62

 MAXIMUM STEPSIZE WHICH MEETS STABILITY CRITERION OF THE SINK & SOURCE TERM
 =  307.2    (WHEN MIN. R.F.=1)  AT K=   2, I=   1, J= 120

 MAXIMUM STEPSIZE WHICH MEETS STABILITY CRITERION OF THE DISPERSION TERM
 =  20.29    (WHEN MIN. R.F.=1)  AT K=   1, I=   1, J=  31


     1 CALLS TO GCG PACKAGE FOR TRANSPORT TIME STEP   1 IN FLOW TIME STEP 454 STRESS PERIOD   1
     6 TOTAL ITERATIONS

 NO OUTPUT CONTROL FOR STRESS PERIOD    1   TIME STEP 454
 
 SOLVING FOR HEAD 
 FLOW MODEL IS TRANSIENT
 FLOW MODEL CONTAINS CONSTANT-HEAD CELLS


 MAXIMUM STEPSIZE DURING WHICH ANY PARTICLE CANNOT MOVE MORE THAN ONE CELL
 =  5.161    (WHEN MIN. R.F.=1)  AT K=   4, I=   1, J=  47

 MAXIMUM STEPSIZE WHICH MEETS STABILITY CRITERION OF THE ADVECTION TERM
 (FOR PURE FINITE-DIFFERENCE OPTION, MIXELM=0) 
 =  3.557    (WHEN MIN. R.F.=1)  AT K=   2, I=   1, J=  79


 TOTAL NUMBER OF POINT SOURCES/SINKS PRESENT IN THE FLOW MODEL =    62

 MAXIMUM STEPSIZE WHICH MEETS STABILITY CRITERION OF THE SINK & SOURCE TERM
 =  301.2    (WHEN MIN. R.F.=1)  AT K=   2, I=   1, J= 120

 MAXIMUM STEPSIZE WHICH MEETS STABILITY CRITERION OF THE DISPERSION TERM
 =  20.29    (WHEN MIN. R.F.=1)  AT K=   1, I=   1, J=  31
     1 CALLS TO GCG PACKAGE FOR TRANSPORT TIME STEP   2 IN FLOW TIME STEP 454 STRESS PERIOD   1
     6 TOTAL ITERATIONS
 
 SOLVING FOR HEAD 
 FLOW MODEL IS TRANSIENT
 FLOW MODEL CONTAINS CONSTANT-HEAD CELLS


 MAXIMUM STEPSIZE DURING WHICH ANY PARTICLE CANNOT MOVE MORE THAN ONE CELL
 =  5.215    (WHEN MIN. R.F.=1)  AT K=   5, I=   1, J=  47

 MAXIMUM STEPSIZE WHICH MEETS STABILITY CRITERION OF THE ADVECTION TERM
 (FOR PURE FINITE-DIFFERENCE OPTION, MIXELM=0) 
 =  3.562    (WHEN MIN. R.F.=1)  AT K=   2, I=   1, J=  79


 TOTAL NUMBER OF POINT SOURCES/SINKS PRESENT IN THE FLOW MODEL =    62

 MAXIMUM STEPSIZE WHICH MEETS STABILITY CRITERION OF THE SINK & SOURCE TERM
 =  308.8    (WHEN MIN. R.F.=1)  AT K=   2, I=   1, J= 120

 MAXIMUM STEPSIZE WHICH MEETS STABILITY CRITERION OF THE DISPERSION TERM
 =  20.29    (WHEN MIN. R.F.=1)  AT K=   1, I=   1, J=  31
     1 CALLS TO GCG PACKAGE FOR TRANSPORT TIME STEP   3 IN FLOW TIME STEP 454 STRESS PERIOD   1
     6 TOTAL ITERATIONS
 
 SOLVING FOR HEAD 
 FLOW MODEL IS TRANSIENT
 FLOW MODEL CONTAINS CONSTANT-HEAD CELLS


 MAXIMUM STEPSIZE DURING WHICH ANY PARTICLE CANNOT MOVE MORE THAN ONE CELL
 =  5.302    (WHEN MIN. R.F.=1)  AT K=   5, I=   1, J=  47

 MAXIMUM STEPSIZE WHICH MEETS STABILITY CRITERION OF THE ADVECTION TERM
 (FOR PURE FINITE-DIFFERENCE OPTION, MIXELM=0) 
 =  3.693    (WHEN MIN. R.F.=1)  AT K=   2, I=   1, J=  79


 TOTAL NUMBER OF POINT SOURCES/SINKS PRESENT IN THE FLOW MODEL =    62

 MAXIMUM STEPSIZE WHICH MEETS STABILITY CRITERION OF THE SINK & SOURCE TERM
 =  319.6    (WHEN MIN. R.F.=1)  AT K=   2, I=   1, J= 120

 MAXIMUM STEPSIZE WHICH MEETS STABILITY CRITERION OF THE DISPERSION TERM
 =  20.29    (WHEN MIN. R.F.=1)  AT K=   1, I=   1, J=  31
     1 CALLS TO GCG PACKAGE FOR TRANSPORT TIME STEP   4 IN FLOW TIME STEP 454 STRESS PERIOD   1
     5 TOTAL ITERATIONS
  MAXIMUM CONCENTRATION CHANGES FOR EACH ITERATION:
  MAX. CHANGE LAYER,ROW,COL MAX. CHANGE LAYER,ROW,COL MAX. CHANGE LAYER,ROW,COL MAX. CHANGE LAYER,ROW,COL MAX. CHANGE LAYER,ROW,COL
 ------------------------------------------------------------------------------------------------------------------------------------
   0.2069E-01 (  2,  1, 80)  0.4922E-03 (  2,  1, 78)  0.2126E-04 (  3,  1, 78)  0.8879E-06 (  3,  1, 76)  0.2151E-07 (  4,  1, 76)


                                          ================================================
                                                         FROM TIME =   4540.0     TO    4550.0    

 
 SOLVING FOR HEAD 
 FLOW MODEL IS TRANSIENT
 FLOW MODEL CONTAINS CONSTANT-HEAD CELLS


 MAXIMUM STEPSIZE DURING WHICH ANY PARTICLE CANNOT MOVE MORE THAN ONE CELL
 =  5.377    (WHEN MIN. R.F.=1)  AT K=   5, I=   1, J=  47

 MAXIMUM STEPSIZE WHICH MEETS STABILITY CRITERION OF THE ADVECTION TERM
 (FOR PURE FINITE-DIFFERENCE OPTION, MIXELM=0) 
 =  3.881    (WHEN MIN. R.F.=1)  AT K=   2, I=   1, J=  79


 TOTAL NUMBER OF POINT SOURCES/SINKS PRESENT IN THE FLOW MODEL =    62

 MAXIMUM STEPSIZE WHICH MEETS STABILITY CRITERION OF THE SINK & SOURCE TERM
 =  345.8    (WHEN MIN. R.F.=1)  AT K=   2, I=   1, J= 120

 MAXIMUM STEPSIZE WHICH MEETS STABILITY CRITERION OF THE DISPERSION TERM
 =  20.29    (WHEN MIN. R.F.=1)  AT K=   1, I=   1, J=  31


     1 CALLS TO GCG PACKAGE FOR TRANSPORT TIME STEP   1 IN FLOW TIME STEP 455 STRESS PERIOD   1
     6 TOTAL ITERATIONS

 NO OUTPUT CONTROL FOR STRESS PERIOD    1   TIME STEP 455
 
 SOLVING FOR HEAD 
 FLOW MODEL IS TRANSIENT
 FLOW MODEL CONTAINS CONSTANT-HEAD CELLS


 MAXIMUM STEPSIZE DURING WHICH ANY PARTICLE CANNOT MOVE MORE THAN ONE CELL
 =  5.521    (WHEN MIN. R.F.=1)  AT K=   6, I=   1, J=  47

 MAXIMUM STEPSIZE WHICH MEETS STABILITY CRITERION OF THE ADVECTION TERM
 (FOR PURE FINITE-DIFFERENCE OPTION, MIXELM=0) 
 =  3.789    (WHEN MIN. R.F.=1)  AT K=   2, I=   1, J=  42


 TOTAL NUMBER OF POINT SOURCES/SINKS PRESENT IN THE FLOW MODEL =    62

 MAXIMUM STEPSIZE WHICH MEETS STABILITY CRITERION OF THE SINK & SOURCE TERM
 =  335.3    (WHEN MIN. R.F.=1)  AT K=   2, I=   1, J= 120

 MAXIMUM STEPSIZE WHICH MEETS STABILITY CRITERION OF THE DISPERSION TERM
 =  20.29    (WHEN MIN. R.F.=1)  AT K=   1, I=   1, J=  31
     1 CALLS TO GCG PACKAGE FOR TRANSPORT TIME STEP   2 IN FLOW TIME STEP 455 STRESS PERIOD   1
     6 TOTAL ITERATIONS
 
 SOLVING FOR HEAD 
 FLOW MODEL IS TRANSIENT
 FLOW MODEL CONTAINS CONSTANT-HEAD CELLS


 MAXIMUM STEPSIZE DURING WHICH ANY PARTICLE CANNOT MOVE MORE THAN ONE CELL
 =  5.634    (WHEN MIN. R.F.=1)  AT K=   6, I=   1, J=  47

 MAXIMUM STEPSIZE WHICH MEETS STABILITY CRITERION OF THE ADVECTION TERM
 (FOR PURE FINITE-DIFFERENCE OPTION, MIXELM=0) 
 =  3.695    (WHEN MIN. R.F.=1)  AT K=   2, I=   1, J=  78


 TOTAL NUMBER OF POINT SOURCES/SINKS PRESENT IN THE FLOW MODEL =    62

 MAXIMUM STEPSIZE WHICH MEETS STABILITY CRITERION OF THE SINK & SOURCE TERM
 =  341.7    (WHEN MIN. R.F.=1)  AT K=   2, I=   1, J= 120

 MAXIMUM STEPSIZE WHICH MEETS STABILITY CRITERION OF THE DISPERSION TERM
 =  20.29    (WHEN MIN. R.F.=1)  AT K=   1, I=   1, J=  31
     1 CALLS TO GCG PACKAGE FOR TRANSPORT TIME STEP   3 IN FLOW TIME STEP 455 STRESS PERIOD   1
     6 TOTAL ITERATIONS
 
 SOLVING FOR HEAD 
 FLOW MODEL IS TRANSIENT
 FLOW MODEL CONTAINS CONSTANT-HEAD CELLS


 MAXIMUM STEPSIZE DURING WHICH ANY PARTICLE CANNOT MOVE MORE THAN ONE CELL
 =  5.778    (WHEN MIN. R.F.=1)  AT K=   6, I=   1, J=  47

 MAXIMUM STEPSIZE WHICH MEETS STABILITY CRITERION OF THE ADVECTION TERM
 (FOR PURE FINITE-DIFFERENCE OPTION, MIXELM=0) 
 =  3.643    (WHEN MIN. R.F.=1)  AT K=   2, I=   1, J=  78


 TOTAL NUMBER OF POINT SOURCES/SINKS PRESENT IN THE FLOW MODEL =    62

 MAXIMUM STEPSIZE WHICH MEETS STABILITY CRITERION OF THE SINK & SOURCE TERM
 =  346.7    (WHEN MIN. R.F.=1)  AT K=   2, I=   1, J= 120

 MAXIMUM STEPSIZE WHICH MEETS STABILITY CRITERION OF THE DISPERSION TERM
 =  20.29    (WHEN MIN. R.F.=1)  AT K=   1, I=   1, J=  31
     1 CALLS TO GCG PACKAGE FOR TRANSPORT TIME STEP   4 IN FLOW TIME STEP 455 STRESS PERIOD   1
     5 TOTAL ITERATIONS
  MAXIMUM CONCENTRATION CHANGES FOR EACH ITERATION:
  MAX. CHANGE LAYER,ROW,COL MAX. CHANGE LAYER,ROW,COL MAX. CHANGE LAYER,ROW,COL MAX. CHANGE LAYER,ROW,COL MAX. CHANGE LAYER,ROW,COL
 ------------------------------------------------------------------------------------------------------------------------------------
   0.1695E-01 (  2,  1, 79)  0.4054E-03 (  2,  1, 79)  0.1289E-04 (  3,  1, 43)  0.5834E-06 (  3,  1, 45)  0.1368E-07 (  4,  1, 45)


                                          ================================================
                                                         FROM TIME =   4550.0     TO    4560.0    

 
 SOLVING FOR HEAD 
 FLOW MODEL IS TRANSIENT
 FLOW MODEL CONTAINS CONSTANT-HEAD CELLS


 MAXIMUM STEPSIZE DURING WHICH ANY PARTICLE CANNOT MOVE MORE THAN ONE CELL
 =  5.828    (WHEN MIN. R.F.=1)  AT K=   4, I=   1, J=  60

 MAXIMUM STEPSIZE WHICH MEETS STABILITY CRITERION OF THE ADVECTION TERM
 (FOR PURE FINITE-DIFFERENCE OPTION, MIXELM=0) 
 =  3.667    (WHEN MIN. R.F.=1)  AT K=   2, I=   1, J=  78


 TOTAL NUMBER OF POINT SOURCES/SINKS PRESENT IN THE FLOW MODEL =    62

 MAXIMUM STEPSIZE WHICH MEETS STABILITY CRITERION OF THE SINK & SOURCE TERM
 =  384.1    (WHEN MIN. R.F.=1)  AT K=   2, I=   1, J= 120

 MAXIMUM STEPSIZE WHICH MEETS STABILITY CRITERION OF THE DISPERSION TERM
 =  20.29    (WHEN MIN. R.F.=1)  AT K=   1, I=   1, J=  31


     1 CALLS TO GCG PACKAGE FOR TRANSPORT TIME STEP   1 IN FLOW TIME STEP 456 STRESS PERIOD   1
     6 TOTAL ITERATIONS

 NO OUTPUT CONTROL FOR STRESS PERIOD    1   TIME STEP 456
 
 SOLVING FOR HEAD 
 FLOW MODEL IS TRANSIENT
 FLOW MODEL CONTAINS CONSTANT-HEAD CELLS


 MAXIMUM STEPSIZE DURING WHICH ANY PARTICLE CANNOT MOVE MORE THAN ONE CELL
 =  5.834    (WHEN MIN. R.F.=1)  AT K=   4, I=   1, J=  60

 MAXIMUM STEPSIZE WHICH MEETS STABILITY CRITERION OF THE ADVECTION TERM
 (FOR PURE FINITE-DIFFERENCE OPTION, MIXELM=0) 
 =  3.788    (WHEN MIN. R.F.=1)  AT K=   2, I=   1, J=  78


 TOTAL NUMBER OF POINT SOURCES/SINKS PRESENT IN THE FLOW MODEL =    62

 MAXIMUM STEPSIZE WHICH MEETS STABILITY CRITERION OF THE SINK & SOURCE TERM
 =  368.3    (WHEN MIN. R.F.=1)  AT K=   2, I=   1, J= 120

 MAXIMUM STEPSIZE WHICH MEETS STABILITY CRITERION OF THE DISPERSION TERM
 =  20.29    (WHEN MIN. R.F.=1)  AT K=   1, I=   1, J=  31
     1 CALLS TO GCG PACKAGE FOR TRANSPORT TIME STEP   2 IN FLOW TIME STEP 456 STRESS PERIOD   1
     6 TOTAL ITERATIONS
 
 SOLVING FOR HEAD 
 FLOW MODEL IS TRANSIENT
 FLOW MODEL CONTAINS CONSTANT-HEAD CELLS


 MAXIMUM STEPSIZE DURING WHICH ANY PARTICLE CANNOT MOVE MORE THAN ONE CELL
 =  5.839    (WHEN MIN. R.F.=1)  AT K=   4, I=   1, J=  60

 MAXIMUM STEPSIZE WHICH MEETS STABILITY CRITERION OF THE ADVECTION TERM
 (FOR PURE FINITE-DIFFERENCE OPTION, MIXELM=0) 
 =  3.890    (WHEN MIN. R.F.=1)  AT K=   2, I=   1, J=  43


 TOTAL NUMBER OF POINT SOURCES/SINKS PRESENT IN THE FLOW MODEL =    62

 MAXIMUM STEPSIZE WHICH MEETS STABILITY CRITERION OF THE SINK & SOURCE TERM
 =  375.7    (WHEN MIN. R.F.=1)  AT K=   2, I=   1, J= 120

 MAXIMUM STEPSIZE WHICH MEETS STABILITY CRITERION OF THE DISPERSION TERM
 =  20.29    (WHEN MIN. R.F.=1)  AT K=   1, I=   1, J=  31
     1 CALLS TO GCG PACKAGE FOR TRANSPORT TIME STEP   3 IN FLOW TIME STEP 456 STRESS PERIOD   1
     6 TOTAL ITERATIONS
 
 SOLVING FOR HEAD 
 FLOW MODEL IS TRANSIENT
 FLOW MODEL CONTAINS CONSTANT-HEAD CELLS


 MAXIMUM STEPSIZE DURING WHICH ANY PARTICLE CANNOT MOVE MORE THAN ONE CELL
 =  5.843    (WHEN MIN. R.F.=1)  AT K=   4, I=   1, J=  60

 MAXIMUM STEPSIZE WHICH MEETS STABILITY CRITERION OF THE ADVECTION TERM
 (FOR PURE FINITE-DIFFERENCE OPTION, MIXELM=0) 
 =  3.765    (WHEN MIN. R.F.=1)  AT K=   2, I=   1, J=  43


 TOTAL NUMBER OF POINT SOURCES/SINKS PRESENT IN THE FLOW MODEL =    62

 MAXIMUM STEPSIZE WHICH MEETS STABILITY CRITERION OF THE SINK & SOURCE TERM
 =  381.0    (WHEN MIN. R.F.=1)  AT K=   2, I=   1, J= 120

 MAXIMUM STEPSIZE WHICH MEETS STABILITY CRITERION OF THE DISPERSION TERM
 =  20.29    (WHEN MIN. R.F.=1)  AT K=   1, I=   1, J=  31
     1 CALLS TO GCG PACKAGE FOR TRANSPORT TIME STEP   4 IN FLOW TIME STEP 456 STRESS PERIOD   1
     5 TOTAL ITERATIONS
  MAXIMUM CONCENTRATION CHANGES FOR EACH ITERATION:
  MAX. CHANGE LAYER,ROW,COL MAX. CHANGE LAYER,ROW,COL MAX. CHANGE LAYER,ROW,COL MAX. CHANGE LAYER,ROW,COL MAX. CHANGE LAYER,ROW,COL
 ------------------------------------------------------------------------------------------------------------------------------------
   0.1808E-01 (  2,  1, 79)  0.6327E-03 (  2,  1, 77)  0.1953E-04 (  3,  1, 77)  0.4973E-06 (  3,  1, 50)  0.2026E-07 (  3,  1, 47)


                                          ================================================
                                                         FROM TIME =   4560.0     TO    4570.0    

 
 SOLVING FOR HEAD 
 FLOW MODEL IS TRANSIENT
 FLOW MODEL CONTAINS CONSTANT-HEAD CELLS


 MAXIMUM STEPSIZE DURING WHICH ANY PARTICLE CANNOT MOVE MORE THAN ONE CELL
 =  5.849    (WHEN MIN. R.F.=1)  AT K=   4, I=   1, J=  60

 MAXIMUM STEPSIZE WHICH MEETS STABILITY CRITERION OF THE ADVECTION TERM
 (FOR PURE FINITE-DIFFERENCE OPTION, MIXELM=0) 
 =  3.758    (WHEN MIN. R.F.=1)  AT K=   2, I=   1, J=  43


 TOTAL NUMBER OF POINT SOURCES/SINKS PRESENT IN THE FLOW MODEL =    62

 MAXIMUM STEPSIZE WHICH MEETS STABILITY CRITERION OF THE SINK & SOURCE TERM
 =  411.6    (WHEN MIN. R.F.=1)  AT K=   2, I=   1, J= 120

 MAXIMUM STEPSIZE WHICH MEETS STABILITY CRITERION OF THE DISPERSION TERM
 =  20.29    (WHEN MIN. R.F.=1)  AT K=   1, I=   1, J=  31


     1 CALLS TO GCG PACKAGE FOR TRANSPORT TIME STEP   1 IN FLOW TIME STEP 457 STRESS PERIOD   1
     6 TOTAL ITERATIONS

 NO OUTPUT CONTROL FOR STRESS PERIOD    1   TIME STEP 457
 
 SOLVING FOR HEAD 
 FLOW MODEL IS TRANSIENT
 FLOW MODEL CONTAINS CONSTANT-HEAD CELLS


 MAXIMUM STEPSIZE DURING WHICH ANY PARTICLE CANNOT MOVE MORE THAN ONE CELL
 =  5.852    (WHEN MIN. R.F.=1)  AT K=   4, I=   1, J=  60

 MAXIMUM STEPSIZE WHICH MEETS STABILITY CRITERION OF THE ADVECTION TERM
 (FOR PURE FINITE-DIFFERENCE OPTION, MIXELM=0) 
 =  3.823    (WHEN MIN. R.F.=1)  AT K=   2, I=   1, J=  43


 TOTAL NUMBER OF POINT SOURCES/SINKS PRESENT IN THE FLOW MODEL =    62

 MAXIMUM STEPSIZE WHICH MEETS STABILITY CRITERION OF THE SINK & SOURCE TERM
 =  403.8    (WHEN MIN. R.F.=1)  AT K=   2, I=   1, J= 120

 MAXIMUM STEPSIZE WHICH MEETS STABILITY CRITERION OF THE DISPERSION TERM
 =  20.29    (WHEN MIN. R.F.=1)  AT K=   1, I=   1, J=  31
     1 CALLS TO GCG PACKAGE FOR TRANSPORT TIME STEP   2 IN FLOW TIME STEP 457 STRESS PERIOD   1
     6 TOTAL ITERATIONS
 
 SOLVING FOR HEAD 
 FLOW MODEL IS TRANSIENT
 FLOW MODEL CONTAINS CONSTANT-HEAD CELLS


 MAXIMUM STEPSIZE DURING WHICH ANY PARTICLE CANNOT MOVE MORE THAN ONE CELL
 =  5.855    (WHEN MIN. R.F.=1)  AT K=   4, I=   1, J=  60

 MAXIMUM STEPSIZE WHICH MEETS STABILITY CRITERION OF THE ADVECTION TERM
 (FOR PURE FINITE-DIFFERENCE OPTION, MIXELM=0) 
 =  3.840    (WHEN MIN. R.F.=1)  AT K=   2, I=   1, J=  77


 TOTAL NUMBER OF POINT SOURCES/SINKS PRESENT IN THE FLOW MODEL =    62

 MAXIMUM STEPSIZE WHICH MEETS STABILITY CRITERION OF THE SINK & SOURCE TERM
 =  416.4    (WHEN MIN. R.F.=1)  AT K=   2, I=   1, J= 120

 MAXIMUM STEPSIZE WHICH MEETS STABILITY CRITERION OF THE DISPERSION TERM
 =  20.29    (WHEN MIN. R.F.=1)  AT K=   1, I=   1, J=  31
     1 CALLS TO GCG PACKAGE FOR TRANSPORT TIME STEP   3 IN FLOW TIME STEP 457 STRESS PERIOD   1
     6 TOTAL ITERATIONS
 
 SOLVING FOR HEAD 
 FLOW MODEL IS TRANSIENT
 FLOW MODEL CONTAINS CONSTANT-HEAD CELLS


 MAXIMUM STEPSIZE DURING WHICH ANY PARTICLE CANNOT MOVE MORE THAN ONE CELL
 =  5.857    (WHEN MIN. R.F.=1)  AT K=   4, I=   1, J=  60

 MAXIMUM STEPSIZE WHICH MEETS STABILITY CRITERION OF THE ADVECTION TERM
 (FOR PURE FINITE-DIFFERENCE OPTION, MIXELM=0) 
 =  3.944    (WHEN MIN. R.F.=1)  AT K=   2, I=   1, J=  77


 TOTAL NUMBER OF POINT SOURCES/SINKS PRESENT IN THE FLOW MODEL =    62

 MAXIMUM STEPSIZE WHICH MEETS STABILITY CRITERION OF THE SINK & SOURCE TERM
 =  414.8    (WHEN MIN. R.F.=1)  AT K=   2, I=   1, J= 120

 MAXIMUM STEPSIZE WHICH MEETS STABILITY CRITERION OF THE DISPERSION TERM
 =  20.29    (WHEN MIN. R.F.=1)  AT K=   1, I=   1, J=  31
     1 CALLS TO GCG PACKAGE FOR TRANSPORT TIME STEP   4 IN FLOW TIME STEP 457 STRESS PERIOD   1
     5 TOTAL ITERATIONS
  MAXIMUM CONCENTRATION CHANGES FOR EACH ITERATION:
  MAX. CHANGE LAYER,ROW,COL MAX. CHANGE LAYER,ROW,COL MAX. CHANGE LAYER,ROW,COL MAX. CHANGE LAYER,ROW,COL MAX. CHANGE LAYER,ROW,COL
 ------------------------------------------------------------------------------------------------------------------------------------
   0.1879E-01 (  2,  1, 78)  0.4002E-03 (  2,  1, 75)  0.1360E-04 (  2,  1, 79)  0.4947E-06 (  3,  1, 79)  0.1193E-07 (  3,  1, 33)


                                          ================================================
                                                         FROM TIME =   4570.0     TO    4580.0    

 
 SOLVING FOR HEAD 
 FLOW MODEL IS TRANSIENT
 FLOW MODEL CONTAINS CONSTANT-HEAD CELLS


 MAXIMUM STEPSIZE DURING WHICH ANY PARTICLE CANNOT MOVE MORE THAN ONE CELL
 =  5.862    (WHEN MIN. R.F.=1)  AT K=   4, I=   1, J=  60

 MAXIMUM STEPSIZE WHICH MEETS STABILITY CRITERION OF THE ADVECTION TERM
 (FOR PURE FINITE-DIFFERENCE OPTION, MIXELM=0) 
 =  4.067    (WHEN MIN. R.F.=1)  AT K=   2, I=   1, J=  77


 TOTAL NUMBER OF POINT SOURCES/SINKS PRESENT IN THE FLOW MODEL =    62

 MAXIMUM STEPSIZE WHICH MEETS STABILITY CRITERION OF THE SINK & SOURCE TERM
 =  432.0    (WHEN MIN. R.F.=1)  AT K=   2, I=   1, J= 120

 MAXIMUM STEPSIZE WHICH MEETS STABILITY CRITERION OF THE DISPERSION TERM
 =  20.29    (WHEN MIN. R.F.=1)  AT K=   1, I=   1, J=  31


     1 CALLS TO GCG PACKAGE FOR TRANSPORT TIME STEP   1 IN FLOW TIME STEP 458 STRESS PERIOD   1
     6 TOTAL ITERATIONS

 NO OUTPUT CONTROL FOR STRESS PERIOD    1   TIME STEP 458
 
 SOLVING FOR HEAD 
 FLOW MODEL IS TRANSIENT
 FLOW MODEL CONTAINS CONSTANT-HEAD CELLS


 MAXIMUM STEPSIZE DURING WHICH ANY PARTICLE CANNOT MOVE MORE THAN ONE CELL
 =  5.865    (WHEN MIN. R.F.=1)  AT K=   4, I=   1, J=  60

 MAXIMUM STEPSIZE WHICH MEETS STABILITY CRITERION OF THE ADVECTION TERM
 (FOR PURE FINITE-DIFFERENCE OPTION, MIXELM=0) 
 =  3.957    (WHEN MIN. R.F.=1)  AT K=   2, I=   1, J=  44


 TOTAL NUMBER OF POINT SOURCES/SINKS PRESENT IN THE FLOW MODEL =    62

 MAXIMUM STEPSIZE WHICH MEETS STABILITY CRITERION OF THE SINK & SOURCE TERM
 =  404.1    (WHEN MIN. R.F.=1)  AT K=   2, I=   1, J= 120

 MAXIMUM STEPSIZE WHICH MEETS STABILITY CRITERION OF THE DISPERSION TERM
 =  20.29    (WHEN MIN. R.F.=1)  AT K=   1, I=   1, J=  31
     1 CALLS TO GCG PACKAGE FOR TRANSPORT TIME STEP   2 IN FLOW TIME STEP 458 STRESS PERIOD   1
     6 TOTAL ITERATIONS
 
 SOLVING FOR HEAD 
 FLOW MODEL IS TRANSIENT
 FLOW MODEL CONTAINS CONSTANT-HEAD CELLS


 MAXIMUM STEPSIZE DURING WHICH ANY PARTICLE CANNOT MOVE MORE THAN ONE CELL
 =  5.865    (WHEN MIN. R.F.=1)  AT K=   4, I=   1, J=  60

 MAXIMUM STEPSIZE WHICH MEETS STABILITY CRITERION OF THE ADVECTION TERM
 (FOR PURE FINITE-DIFFERENCE OPTION, MIXELM=0) 
 =  3.938    (WHEN MIN. R.F.=1)  AT K=   2, I=   1, J=  44


 TOTAL NUMBER OF POINT SOURCES/SINKS PRESENT IN THE FLOW MODEL =    62

 MAXIMUM STEPSIZE WHICH MEETS STABILITY CRITERION OF THE SINK & SOURCE TERM
 =  403.8    (WHEN MIN. R.F.=1)  AT K=   2, I=   1, J= 120

 MAXIMUM STEPSIZE WHICH MEETS STABILITY CRITERION OF THE DISPERSION TERM
 =  20.29    (WHEN MIN. R.F.=1)  AT K=   1, I=   1, J=  31
     1 CALLS TO GCG PACKAGE FOR TRANSPORT TIME STEP   3 IN FLOW TIME STEP 458 STRESS PERIOD   1
     6 TOTAL ITERATIONS
 
 SOLVING FOR HEAD 
 FLOW MODEL IS TRANSIENT
 FLOW MODEL CONTAINS CONSTANT-HEAD CELLS


 MAXIMUM STEPSIZE DURING WHICH ANY PARTICLE CANNOT MOVE MORE THAN ONE CELL
 =  5.868    (WHEN MIN. R.F.=1)  AT K=   4, I=   1, J=  60

 MAXIMUM STEPSIZE WHICH MEETS STABILITY CRITERION OF THE ADVECTION TERM
 (FOR PURE FINITE-DIFFERENCE OPTION, MIXELM=0) 
 =  4.037    (WHEN MIN. R.F.=1)  AT K=   2, I=   1, J=  44


 TOTAL NUMBER OF POINT SOURCES/SINKS PRESENT IN THE FLOW MODEL =    62

 MAXIMUM STEPSIZE WHICH MEETS STABILITY CRITERION OF THE SINK & SOURCE TERM
 =  399.0    (WHEN MIN. R.F.=1)  AT K=   2, I=   1, J= 120

 MAXIMUM STEPSIZE WHICH MEETS STABILITY CRITERION OF THE DISPERSION TERM
 =  20.29    (WHEN MIN. R.F.=1)  AT K=   1, I=   1, J=  31
     1 CALLS TO GCG PACKAGE FOR TRANSPORT TIME STEP   4 IN FLOW TIME STEP 458 STRESS PERIOD   1
     4 TOTAL ITERATIONS
  MAXIMUM CONCENTRATION CHANGES FOR EACH ITERATION:
  MAX. CHANGE LAYER,ROW,COL MAX. CHANGE LAYER,ROW,COL MAX. CHANGE LAYER,ROW,COL MAX. CHANGE LAYER,ROW,COL MAX. CHANGE LAYER,ROW,COL
 ------------------------------------------------------------------------------------------------------------------------------------
   0.1092E-01 (  2,  1, 31)  0.1951E-03 (  2,  1, 46)  0.3560E-05 (  3,  1, 46)  0.8683E-07 (  3,  1, 42)


                                          ================================================
                                                         FROM TIME =   4580.0     TO    4590.0    

 
 SOLVING FOR HEAD 
 FLOW MODEL IS TRANSIENT
 FLOW MODEL CONTAINS CONSTANT-HEAD CELLS


 MAXIMUM STEPSIZE DURING WHICH ANY PARTICLE CANNOT MOVE MORE THAN ONE CELL
 =  5.872    (WHEN MIN. R.F.=1)  AT K=   4, I=   1, J=  60

 MAXIMUM STEPSIZE WHICH MEETS STABILITY CRITERION OF THE ADVECTION TERM
 (FOR PURE FINITE-DIFFERENCE OPTION, MIXELM=0) 
 =  4.105    (WHEN MIN. R.F.=1)  AT K=   2, I=   1, J=  44


 TOTAL NUMBER OF POINT SOURCES/SINKS PRESENT IN THE FLOW MODEL =    62

 MAXIMUM STEPSIZE WHICH MEETS STABILITY CRITERION OF THE SINK & SOURCE TERM
 =  451.5    (WHEN MIN. R.F.=1)  AT K=   2, I=   1, J= 120

 MAXIMUM STEPSIZE WHICH MEETS STABILITY CRITERION OF THE DISPERSION TERM
 =  20.29    (WHEN MIN. R.F.=1)  AT K=   1, I=   1, J=  31


     1 CALLS TO GCG PACKAGE FOR TRANSPORT TIME STEP   1 IN FLOW TIME STEP 459 STRESS PERIOD   1
     6 TOTAL ITERATIONS

 NO OUTPUT CONTROL FOR STRESS PERIOD    1   TIME STEP 459
 
 SOLVING FOR HEAD 
 FLOW MODEL IS TRANSIENT
 FLOW MODEL CONTAINS CONSTANT-HEAD CELLS


 MAXIMUM STEPSIZE DURING WHICH ANY PARTICLE CANNOT MOVE MORE THAN ONE CELL
 =  5.876    (WHEN MIN. R.F.=1)  AT K=   4, I=   1, J=  60

 MAXIMUM STEPSIZE WHICH MEETS STABILITY CRITERION OF THE ADVECTION TERM
 (FOR PURE FINITE-DIFFERENCE OPTION, MIXELM=0) 
 =  4.253    (WHEN MIN. R.F.=1)  AT K=   2, I=   1, J=  76


 TOTAL NUMBER OF POINT SOURCES/SINKS PRESENT IN THE FLOW MODEL =    62

 MAXIMUM STEPSIZE WHICH MEETS STABILITY CRITERION OF THE SINK & SOURCE TERM
 =  410.7    (WHEN MIN. R.F.=1)  AT K=   2, I=   1, J= 120

 MAXIMUM STEPSIZE WHICH MEETS STABILITY CRITERION OF THE DISPERSION TERM
 =  20.29    (WHEN MIN. R.F.=1)  AT K=   1, I=   1, J=  31
     1 CALLS TO GCG PACKAGE FOR TRANSPORT TIME STEP   2 IN FLOW TIME STEP 459 STRESS PERIOD   1
     6 TOTAL ITERATIONS
 
 SOLVING FOR HEAD 
 FLOW MODEL IS TRANSIENT
 FLOW MODEL CONTAINS CONSTANT-HEAD CELLS


 MAXIMUM STEPSIZE DURING WHICH ANY PARTICLE CANNOT MOVE MORE THAN ONE CELL
 =  5.878    (WHEN MIN. R.F.=1)  AT K=   4, I=   1, J=  60

 MAXIMUM STEPSIZE WHICH MEETS STABILITY CRITERION OF THE ADVECTION TERM
 (FOR PURE FINITE-DIFFERENCE OPTION, MIXELM=0) 
 =  4.359    (WHEN MIN. R.F.=1)  AT K=   2, I=   1, J=  76


 TOTAL NUMBER OF POINT SOURCES/SINKS PRESENT IN THE FLOW MODEL =    62

 MAXIMUM STEPSIZE WHICH MEETS STABILITY CRITERION OF THE SINK & SOURCE TERM
 =  393.7    (WHEN MIN. R.F.=1)  AT K=   2, I=   1, J= 120

 MAXIMUM STEPSIZE WHICH MEETS STABILITY CRITERION OF THE DISPERSION TERM
 =  20.29    (WHEN MIN. R.F.=1)  AT K=   1, I=   1, J=  31
     1 CALLS TO GCG PACKAGE FOR TRANSPORT TIME STEP   3 IN FLOW TIME STEP 459 STRESS PERIOD   1
     6 TOTAL ITERATIONS
 
 SOLVING FOR HEAD 
 FLOW MODEL IS TRANSIENT
 FLOW MODEL CONTAINS CONSTANT-HEAD CELLS


 MAXIMUM STEPSIZE DURING WHICH ANY PARTICLE CANNOT MOVE MORE THAN ONE CELL
 =  5.881    (WHEN MIN. R.F.=1)  AT K=   4, I=   1, J=  60

 MAXIMUM STEPSIZE WHICH MEETS STABILITY CRITERION OF THE ADVECTION TERM
 (FOR PURE FINITE-DIFFERENCE OPTION, MIXELM=0) 
 =  4.422    (WHEN MIN. R.F.=1)  AT K=   2, I=   1, J=  45


 TOTAL NUMBER OF POINT SOURCES/SINKS PRESENT IN THE FLOW MODEL =    62

 MAXIMUM STEPSIZE WHICH MEETS STABILITY CRITERION OF THE SINK & SOURCE TERM
 =  367.0    (WHEN MIN. R.F.=1)  AT K=   2, I=   1, J= 120

 MAXIMUM STEPSIZE WHICH MEETS STABILITY CRITERION OF THE DISPERSION TERM
 =  20.29    (WHEN MIN. R.F.=1)  AT K=   1, I=   1, J=  31
     1 CALLS TO GCG PACKAGE FOR TRANSPORT TIME STEP   4 IN FLOW TIME STEP 459 STRESS PERIOD   1
     4 TOTAL ITERATIONS
  MAXIMUM CONCENTRATION CHANGES FOR EACH ITERATION:
  MAX. CHANGE LAYER,ROW,COL MAX. CHANGE LAYER,ROW,COL MAX. CHANGE LAYER,ROW,COL MAX. CHANGE LAYER,ROW,COL MAX. CHANGE LAYER,ROW,COL
 ------------------------------------------------------------------------------------------------------------------------------------
   0.8338E-02 (  2,  1, 77)  0.7646E-04 (  2,  1, 45)  0.1299E-05 (  2,  1, 78)  0.2454E-07 (  3,  1, 78)


                                          ================================================
                                                         FROM TIME =   4590.0     TO    4600.0    

 
 SOLVING FOR HEAD 
 FLOW MODEL IS TRANSIENT
 FLOW MODEL CONTAINS CONSTANT-HEAD CELLS


 MAXIMUM STEPSIZE DURING WHICH ANY PARTICLE CANNOT MOVE MORE THAN ONE CELL
 =  5.885    (WHEN MIN. R.F.=1)  AT K=   4, I=   1, J=  60

 MAXIMUM STEPSIZE WHICH MEETS STABILITY CRITERION OF THE ADVECTION TERM
 (FOR PURE FINITE-DIFFERENCE OPTION, MIXELM=0) 
 =  4.388    (WHEN MIN. R.F.=1)  AT K=   2, I=   1, J=  45


 TOTAL NUMBER OF POINT SOURCES/SINKS PRESENT IN THE FLOW MODEL =    62

 MAXIMUM STEPSIZE WHICH MEETS STABILITY CRITERION OF THE SINK & SOURCE TERM
 =  394.4    (WHEN MIN. R.F.=1)  AT K=   2, I=   1, J= 120

 MAXIMUM STEPSIZE WHICH MEETS STABILITY CRITERION OF THE DISPERSION TERM
 =  20.29    (WHEN MIN. R.F.=1)  AT K=   1, I=   1, J=  31


     1 CALLS TO GCG PACKAGE FOR TRANSPORT TIME STEP   1 IN FLOW TIME STEP 460 STRESS PERIOD   1
     6 TOTAL ITERATIONS

 NO OUTPUT CONTROL FOR STRESS PERIOD    1   TIME STEP 460
 
 SOLVING FOR HEAD 
 FLOW MODEL IS TRANSIENT
 FLOW MODEL CONTAINS CONSTANT-HEAD CELLS


 MAXIMUM STEPSIZE DURING WHICH ANY PARTICLE CANNOT MOVE MORE THAN ONE CELL
 =  5.889    (WHEN MIN. R.F.=1)  AT K=   4, I=   1, J=  60

 MAXIMUM STEPSIZE WHICH MEETS STABILITY CRITERION OF THE ADVECTION TERM
 (FOR PURE FINITE-DIFFERENCE OPTION, MIXELM=0) 
 =  4.326    (WHEN MIN. R.F.=1)  AT K=   2, I=   1, J=  45


 TOTAL NUMBER OF POINT SOURCES/SINKS PRESENT IN THE FLOW MODEL =    62

 MAXIMUM STEPSIZE WHICH MEETS STABILITY CRITERION OF THE SINK & SOURCE TERM
 =  359.5    (WHEN MIN. R.F.=1)  AT K=   2, I=   1, J= 120

 MAXIMUM STEPSIZE WHICH MEETS STABILITY CRITERION OF THE DISPERSION TERM
 =  20.29    (WHEN MIN. R.F.=1)  AT K=   1, I=   1, J=  31
     1 CALLS TO GCG PACKAGE FOR TRANSPORT TIME STEP   2 IN FLOW TIME STEP 460 STRESS PERIOD   1
     6 TOTAL ITERATIONS
 
 SOLVING FOR HEAD 
 FLOW MODEL IS TRANSIENT
 FLOW MODEL CONTAINS CONSTANT-HEAD CELLS


 MAXIMUM STEPSIZE DURING WHICH ANY PARTICLE CANNOT MOVE MORE THAN ONE CELL
 =  5.893    (WHEN MIN. R.F.=1)  AT K=   4, I=   1, J=  60

 MAXIMUM STEPSIZE WHICH MEETS STABILITY CRITERION OF THE ADVECTION TERM
 (FOR PURE FINITE-DIFFERENCE OPTION, MIXELM=0) 
 =  4.373    (WHEN MIN. R.F.=1)  AT K=   2, I=   1, J=  75


 TOTAL NUMBER OF POINT SOURCES/SINKS PRESENT IN THE FLOW MODEL =    62

 MAXIMUM STEPSIZE WHICH MEETS STABILITY CRITERION OF THE SINK & SOURCE TERM
 =  351.7    (WHEN MIN. R.F.=1)  AT K=   2, I=   1, J= 120

 MAXIMUM STEPSIZE WHICH MEETS STABILITY CRITERION OF THE DISPERSION TERM
 =  20.29    (WHEN MIN. R.F.=1)  AT K=   1, I=   1, J=  31
     1 CALLS TO GCG PACKAGE FOR TRANSPORT TIME STEP   3 IN FLOW TIME STEP 460 STRESS PERIOD   1
     6 TOTAL ITERATIONS
 
 SOLVING FOR HEAD 
 FLOW MODEL IS TRANSIENT
 FLOW MODEL CONTAINS CONSTANT-HEAD CELLS


 MAXIMUM STEPSIZE DURING WHICH ANY PARTICLE CANNOT MOVE MORE THAN ONE CELL
 =  5.663    (WHEN MIN. R.F.=1)  AT K=   4, I=   1, J=  74

 MAXIMUM STEPSIZE WHICH MEETS STABILITY CRITERION OF THE ADVECTION TERM
 (FOR PURE FINITE-DIFFERENCE OPTION, MIXELM=0) 
 =  4.286    (WHEN MIN. R.F.=1)  AT K=   2, I=   1, J=  75


 TOTAL NUMBER OF POINT SOURCES/SINKS PRESENT IN THE FLOW MODEL =    62

 MAXIMUM STEPSIZE WHICH MEETS STABILITY CRITERION OF THE SINK & SOURCE TERM
 =  328.6    (WHEN MIN. R.F.=1)  AT K=   2, I=   1, J= 120

 MAXIMUM STEPSIZE WHICH MEETS STABILITY CRITERION OF THE DISPERSION TERM
 =  20.29    (WHEN MIN. R.F.=1)  AT K=   1, I=   1, J=  31
     1 CALLS TO GCG PACKAGE FOR TRANSPORT TIME STEP   4 IN FLOW TIME STEP 460 STRESS PERIOD   1
     3 TOTAL ITERATIONS
  MAXIMUM CONCENTRATION CHANGES FOR EACH ITERATION:
  MAX. CHANGE LAYER,ROW,COL MAX. CHANGE LAYER,ROW,COL MAX. CHANGE LAYER,ROW,COL MAX. CHANGE LAYER,ROW,COL MAX. CHANGE LAYER,ROW,COL
 ------------------------------------------------------------------------------------------------------------------------------------
   0.1772E-02 (  2,  1, 83)  0.4020E-05 ( 30,  1, 24)  0.1231E-07 (  2,  1, 77)


                                          ================================================
                                                         FROM TIME =   4600.0     TO    4610.0    

 
 SOLVING FOR HEAD 
 FLOW MODEL IS TRANSIENT
 FLOW MODEL CONTAINS CONSTANT-HEAD CELLS


 MAXIMUM STEPSIZE DURING WHICH ANY PARTICLE CANNOT MOVE MORE THAN ONE CELL
 =  5.647    (WHEN MIN. R.F.=1)  AT K=   4, I=   1, J=  74

 MAXIMUM STEPSIZE WHICH MEETS STABILITY CRITERION OF THE ADVECTION TERM
 (FOR PURE FINITE-DIFFERENCE OPTION, MIXELM=0) 
 =  4.288    (WHEN MIN. R.F.=1)  AT K=   2, I=   1, J=  75


 TOTAL NUMBER OF POINT SOURCES/SINKS PRESENT IN THE FLOW MODEL =    62

 MAXIMUM STEPSIZE WHICH MEETS STABILITY CRITERION OF THE SINK & SOURCE TERM
 =  369.8    (WHEN MIN. R.F.=1)  AT K=   2, I=   1, J= 120

 MAXIMUM STEPSIZE WHICH MEETS STABILITY CRITERION OF THE DISPERSION TERM
 =  20.29    (WHEN MIN. R.F.=1)  AT K=   1, I=   1, J=  31


     1 CALLS TO GCG PACKAGE FOR TRANSPORT TIME STEP   1 IN FLOW TIME STEP 461 STRESS PERIOD   1
     6 TOTAL ITERATIONS

 NO OUTPUT CONTROL FOR STRESS PERIOD    1   TIME STEP 461
 
 SOLVING FOR HEAD 
 FLOW MODEL IS TRANSIENT
 FLOW MODEL CONTAINS CONSTANT-HEAD CELLS


 MAXIMUM STEPSIZE DURING WHICH ANY PARTICLE CANNOT MOVE MORE THAN ONE CELL
 =  5.362    (WHEN MIN. R.F.=1)  AT K=   4, I=   1, J=  74

 MAXIMUM STEPSIZE WHICH MEETS STABILITY CRITERION OF THE ADVECTION TERM
 (FOR PURE FINITE-DIFFERENCE OPTION, MIXELM=0) 
 =  3.999    (WHEN MIN. R.F.=1)  AT K=   2, I=   1, J=  81


 TOTAL NUMBER OF POINT SOURCES/SINKS PRESENT IN THE FLOW MODEL =    62

 MAXIMUM STEPSIZE WHICH MEETS STABILITY CRITERION OF THE SINK & SOURCE TERM
 =  332.3    (WHEN MIN. R.F.=1)  AT K=   2, I=   1, J= 120

 MAXIMUM STEPSIZE WHICH MEETS STABILITY CRITERION OF THE DISPERSION TERM
 =  20.29    (WHEN MIN. R.F.=1)  AT K=   1, I=   1, J=  31
     1 CALLS TO GCG PACKAGE FOR TRANSPORT TIME STEP   2 IN FLOW TIME STEP 461 STRESS PERIOD   1
     6 TOTAL ITERATIONS
 
 SOLVING FOR HEAD 
 FLOW MODEL IS TRANSIENT
 FLOW MODEL CONTAINS CONSTANT-HEAD CELLS


 MAXIMUM STEPSIZE DURING WHICH ANY PARTICLE CANNOT MOVE MORE THAN ONE CELL
 =  5.154    (WHEN MIN. R.F.=1)  AT K=   4, I=   1, J=  74

 MAXIMUM STEPSIZE WHICH MEETS STABILITY CRITERION OF THE ADVECTION TERM
 (FOR PURE FINITE-DIFFERENCE OPTION, MIXELM=0) 
 =  3.871    (WHEN MIN. R.F.=1)  AT K=   2, I=   1, J=  81


 TOTAL NUMBER OF POINT SOURCES/SINKS PRESENT IN THE FLOW MODEL =    62

 MAXIMUM STEPSIZE WHICH MEETS STABILITY CRITERION OF THE SINK & SOURCE TERM
 =  326.5    (WHEN MIN. R.F.=1)  AT K=   2, I=   1, J= 120

 MAXIMUM STEPSIZE WHICH MEETS STABILITY CRITERION OF THE DISPERSION TERM
 =  20.29    (WHEN MIN. R.F.=1)  AT K=   1, I=   1, J=  31
     1 CALLS TO GCG PACKAGE FOR TRANSPORT TIME STEP   3 IN FLOW TIME STEP 461 STRESS PERIOD   1
     6 TOTAL ITERATIONS
 
 SOLVING FOR HEAD 
 FLOW MODEL IS TRANSIENT
 FLOW MODEL CONTAINS CONSTANT-HEAD CELLS


 MAXIMUM STEPSIZE DURING WHICH ANY PARTICLE CANNOT MOVE MORE THAN ONE CELL
 =  5.022    (WHEN MIN. R.F.=1)  AT K=   4, I=   1, J=  74

 MAXIMUM STEPSIZE WHICH MEETS STABILITY CRITERION OF THE ADVECTION TERM
 (FOR PURE FINITE-DIFFERENCE OPTION, MIXELM=0) 
 =  3.995    (WHEN MIN. R.F.=1)  AT K=   2, I=   1, J=  81


 TOTAL NUMBER OF POINT SOURCES/SINKS PRESENT IN THE FLOW MODEL =    62

 MAXIMUM STEPSIZE WHICH MEETS STABILITY CRITERION OF THE SINK & SOURCE TERM
 =  311.0    (WHEN MIN. R.F.=1)  AT K=   2, I=   1, J= 120

 MAXIMUM STEPSIZE WHICH MEETS STABILITY CRITERION OF THE DISPERSION TERM
 =  20.29    (WHEN MIN. R.F.=1)  AT K=   1, I=   1, J=  31
     1 CALLS TO GCG PACKAGE FOR TRANSPORT TIME STEP   4 IN FLOW TIME STEP 461 STRESS PERIOD   1
     4 TOTAL ITERATIONS
  MAXIMUM CONCENTRATION CHANGES FOR EACH ITERATION:
  MAX. CHANGE LAYER,ROW,COL MAX. CHANGE LAYER,ROW,COL MAX. CHANGE LAYER,ROW,COL MAX. CHANGE LAYER,ROW,COL MAX. CHANGE LAYER,ROW,COL
 ------------------------------------------------------------------------------------------------------------------------------------
   0.7403E-02 (  2,  1, 82)  0.6416E-04 (  2,  1, 82)  0.7964E-06 (  3,  1, 80)  0.1005E-07 (  3,  1, 83)


                                          ================================================
                                                         FROM TIME =   4610.0     TO    4620.0    

 
 SOLVING FOR HEAD 
 FLOW MODEL IS TRANSIENT
 FLOW MODEL CONTAINS CONSTANT-HEAD CELLS


 MAXIMUM STEPSIZE DURING WHICH ANY PARTICLE CANNOT MOVE MORE THAN ONE CELL
 =  5.004    (WHEN MIN. R.F.=1)  AT K=   4, I=   1, J=  74

 MAXIMUM STEPSIZE WHICH MEETS STABILITY CRITERION OF THE ADVECTION TERM
 (FOR PURE FINITE-DIFFERENCE OPTION, MIXELM=0) 
 =  4.061    (WHEN MIN. R.F.=1)  AT K=   2, I=   1, J=  81


 TOTAL NUMBER OF POINT SOURCES/SINKS PRESENT IN THE FLOW MODEL =    62

 MAXIMUM STEPSIZE WHICH MEETS STABILITY CRITERION OF THE SINK & SOURCE TERM
 =  330.3    (WHEN MIN. R.F.=1)  AT K=   2, I=   1, J= 120

 MAXIMUM STEPSIZE WHICH MEETS STABILITY CRITERION OF THE DISPERSION TERM
 =  20.29    (WHEN MIN. R.F.=1)  AT K=   1, I=   1, J=  31


     1 CALLS TO GCG PACKAGE FOR TRANSPORT TIME STEP   1 IN FLOW TIME STEP 462 STRESS PERIOD   1
     6 TOTAL ITERATIONS

 NO OUTPUT CONTROL FOR STRESS PERIOD    1   TIME STEP 462
 
 SOLVING FOR HEAD 
 FLOW MODEL IS TRANSIENT
 FLOW MODEL CONTAINS CONSTANT-HEAD CELLS


 MAXIMUM STEPSIZE DURING WHICH ANY PARTICLE CANNOT MOVE MORE THAN ONE CELL
 =  4.940    (WHEN MIN. R.F.=1)  AT K=   4, I=   1, J=  74

 MAXIMUM STEPSIZE WHICH MEETS STABILITY CRITERION OF THE ADVECTION TERM
 (FOR PURE FINITE-DIFFERENCE OPTION, MIXELM=0) 
 =  3.823    (WHEN MIN. R.F.=1)  AT K=   2, I=   1, J=  80


 TOTAL NUMBER OF POINT SOURCES/SINKS PRESENT IN THE FLOW MODEL =    62

 MAXIMUM STEPSIZE WHICH MEETS STABILITY CRITERION OF THE SINK & SOURCE TERM
 =  300.2    (WHEN MIN. R.F.=1)  AT K=   2, I=   1, J= 120

 MAXIMUM STEPSIZE WHICH MEETS STABILITY CRITERION OF THE DISPERSION TERM
 =  20.29    (WHEN MIN. R.F.=1)  AT K=   1, I=   1, J=  31
     1 CALLS TO GCG PACKAGE FOR TRANSPORT TIME STEP   2 IN FLOW TIME STEP 462 STRESS PERIOD   1
     6 TOTAL ITERATIONS
 
 SOLVING FOR HEAD 
 FLOW MODEL IS TRANSIENT
 FLOW MODEL CONTAINS CONSTANT-HEAD CELLS


 MAXIMUM STEPSIZE DURING WHICH ANY PARTICLE CANNOT MOVE MORE THAN ONE CELL
 =  4.929    (WHEN MIN. R.F.=1)  AT K=   4, I=   1, J=  74

 MAXIMUM STEPSIZE WHICH MEETS STABILITY CRITERION OF THE ADVECTION TERM
 (FOR PURE FINITE-DIFFERENCE OPTION, MIXELM=0) 
 =  3.608    (WHEN MIN. R.F.=1)  AT K=   2, I=   1, J=  80


 TOTAL NUMBER OF POINT SOURCES/SINKS PRESENT IN THE FLOW MODEL =    62

 MAXIMUM STEPSIZE WHICH MEETS STABILITY CRITERION OF THE SINK & SOURCE TERM
 =  292.3    (WHEN MIN. R.F.=1)  AT K=   2, I=   1, J= 120

 MAXIMUM STEPSIZE WHICH MEETS STABILITY CRITERION OF THE DISPERSION TERM
 =  20.29    (WHEN MIN. R.F.=1)  AT K=   1, I=   1, J=  31
     1 CALLS TO GCG PACKAGE FOR TRANSPORT TIME STEP   3 IN FLOW TIME STEP 462 STRESS PERIOD   1
     6 TOTAL ITERATIONS
 
 SOLVING FOR HEAD 
 FLOW MODEL IS TRANSIENT
 FLOW MODEL CONTAINS CONSTANT-HEAD CELLS


 MAXIMUM STEPSIZE DURING WHICH ANY PARTICLE CANNOT MOVE MORE THAN ONE CELL
 =  4.966    (WHEN MIN. R.F.=1)  AT K=   4, I=   1, J=  74

 MAXIMUM STEPSIZE WHICH MEETS STABILITY CRITERION OF THE ADVECTION TERM
 (FOR PURE FINITE-DIFFERENCE OPTION, MIXELM=0) 
 =  3.591    (WHEN MIN. R.F.=1)  AT K=   2, I=   1, J=  80


 TOTAL NUMBER OF POINT SOURCES/SINKS PRESENT IN THE FLOW MODEL =    62

 MAXIMUM STEPSIZE WHICH MEETS STABILITY CRITERION OF THE SINK & SOURCE TERM
 =  292.6    (WHEN MIN. R.F.=1)  AT K=   2, I=   1, J= 120

 MAXIMUM STEPSIZE WHICH MEETS STABILITY CRITERION OF THE DISPERSION TERM
 =  20.29    (WHEN MIN. R.F.=1)  AT K=   1, I=   1, J=  31
     1 CALLS TO GCG PACKAGE FOR TRANSPORT TIME STEP   4 IN FLOW TIME STEP 462 STRESS PERIOD   1
     5 TOTAL ITERATIONS
  MAXIMUM CONCENTRATION CHANGES FOR EACH ITERATION:
  MAX. CHANGE LAYER,ROW,COL MAX. CHANGE LAYER,ROW,COL MAX. CHANGE LAYER,ROW,COL MAX. CHANGE LAYER,ROW,COL MAX. CHANGE LAYER,ROW,COL
 ------------------------------------------------------------------------------------------------------------------------------------
   0.1318E-01 (  2,  1, 81)  0.2094E-03 (  2,  1, 81)  0.6341E-05 (  3,  1, 79)  0.1474E-06 (  3,  1, 77)  0.3107E-08 (  4,  1, 77)


                                          ================================================
                                                         FROM TIME =   4620.0     TO    4630.0    

 
 SOLVING FOR HEAD 
 FLOW MODEL IS TRANSIENT
 FLOW MODEL CONTAINS CONSTANT-HEAD CELLS


 MAXIMUM STEPSIZE DURING WHICH ANY PARTICLE CANNOT MOVE MORE THAN ONE CELL
 =  4.995    (WHEN MIN. R.F.=1)  AT K=   4, I=   1, J=  74

 MAXIMUM STEPSIZE WHICH MEETS STABILITY CRITERION OF THE ADVECTION TERM
 (FOR PURE FINITE-DIFFERENCE OPTION, MIXELM=0) 
 =  3.656    (WHEN MIN. R.F.=1)  AT K=   2, I=   1, J=  80


 TOTAL NUMBER OF POINT SOURCES/SINKS PRESENT IN THE FLOW MODEL =    62

 MAXIMUM STEPSIZE WHICH MEETS STABILITY CRITERION OF THE SINK & SOURCE TERM
 =  340.0    (WHEN MIN. R.F.=1)  AT K=   2, I=   1, J= 120

 MAXIMUM STEPSIZE WHICH MEETS STABILITY CRITERION OF THE DISPERSION TERM
 =  20.29    (WHEN MIN. R.F.=1)  AT K=   1, I=   1, J=  31


     1 CALLS TO GCG PACKAGE FOR TRANSPORT TIME STEP   1 IN FLOW TIME STEP 463 STRESS PERIOD   1
     6 TOTAL ITERATIONS

 NO OUTPUT CONTROL FOR STRESS PERIOD    1   TIME STEP 463
 
 SOLVING FOR HEAD 
 FLOW MODEL IS TRANSIENT
 FLOW MODEL CONTAINS CONSTANT-HEAD CELLS


 MAXIMUM STEPSIZE DURING WHICH ANY PARTICLE CANNOT MOVE MORE THAN ONE CELL
 =  5.051    (WHEN MIN. R.F.=1)  AT K=   5, I=   1, J=  74

 MAXIMUM STEPSIZE WHICH MEETS STABILITY CRITERION OF THE ADVECTION TERM
 (FOR PURE FINITE-DIFFERENCE OPTION, MIXELM=0) 
 =  3.929    (WHEN MIN. R.F.=1)  AT K=   2, I=   1, J=  80


 TOTAL NUMBER OF POINT SOURCES/SINKS PRESENT IN THE FLOW MODEL =    62

 MAXIMUM STEPSIZE WHICH MEETS STABILITY CRITERION OF THE SINK & SOURCE TERM
 =  314.9    (WHEN MIN. R.F.=1)  AT K=   2, I=   1, J= 120

 MAXIMUM STEPSIZE WHICH MEETS STABILITY CRITERION OF THE DISPERSION TERM
 =  20.29    (WHEN MIN. R.F.=1)  AT K=   1, I=   1, J=  31
     1 CALLS TO GCG PACKAGE FOR TRANSPORT TIME STEP   2 IN FLOW TIME STEP 463 STRESS PERIOD   1
     6 TOTAL ITERATIONS
 
 SOLVING FOR HEAD 
 FLOW MODEL IS TRANSIENT
 FLOW MODEL CONTAINS CONSTANT-HEAD CELLS


 MAXIMUM STEPSIZE DURING WHICH ANY PARTICLE CANNOT MOVE MORE THAN ONE CELL
 =  5.119    (WHEN MIN. R.F.=1)  AT K=   5, I=   1, J=  74

 MAXIMUM STEPSIZE WHICH MEETS STABILITY CRITERION OF THE ADVECTION TERM
 (FOR PURE FINITE-DIFFERENCE OPTION, MIXELM=0) 
 =  3.740    (WHEN MIN. R.F.=1)  AT K=   2, I=   1, J=  79


 TOTAL NUMBER OF POINT SOURCES/SINKS PRESENT IN THE FLOW MODEL =    62

 MAXIMUM STEPSIZE WHICH MEETS STABILITY CRITERION OF THE SINK & SOURCE TERM
 =  314.0    (WHEN MIN. R.F.=1)  AT K=   2, I=   1, J= 120

 MAXIMUM STEPSIZE WHICH MEETS STABILITY CRITERION OF THE DISPERSION TERM
 =  20.29    (WHEN MIN. R.F.=1)  AT K=   1, I=   1, J=  31
     1 CALLS TO GCG PACKAGE FOR TRANSPORT TIME STEP   3 IN FLOW TIME STEP 463 STRESS PERIOD   1
     6 TOTAL ITERATIONS
 
 SOLVING FOR HEAD 
 FLOW MODEL IS TRANSIENT
 FLOW MODEL CONTAINS CONSTANT-HEAD CELLS


 MAXIMUM STEPSIZE DURING WHICH ANY PARTICLE CANNOT MOVE MORE THAN ONE CELL
 =  5.168    (WHEN MIN. R.F.=1)  AT K=   4, I=   1, J=  47

 MAXIMUM STEPSIZE WHICH MEETS STABILITY CRITERION OF THE ADVECTION TERM
 (FOR PURE FINITE-DIFFERENCE OPTION, MIXELM=0) 
 =  3.568    (WHEN MIN. R.F.=1)  AT K=   2, I=   1, J=  79


 TOTAL NUMBER OF POINT SOURCES/SINKS PRESENT IN THE FLOW MODEL =    62

 MAXIMUM STEPSIZE WHICH MEETS STABILITY CRITERION OF THE SINK & SOURCE TERM
 =  307.2    (WHEN MIN. R.F.=1)  AT K=   2, I=   1, J= 120

 MAXIMUM STEPSIZE WHICH MEETS STABILITY CRITERION OF THE DISPERSION TERM
 =  20.29    (WHEN MIN. R.F.=1)  AT K=   1, I=   1, J=  31
     1 CALLS TO GCG PACKAGE FOR TRANSPORT TIME STEP   4 IN FLOW TIME STEP 463 STRESS PERIOD   1
     5 TOTAL ITERATIONS
  MAXIMUM CONCENTRATION CHANGES FOR EACH ITERATION:
  MAX. CHANGE LAYER,ROW,COL MAX. CHANGE LAYER,ROW,COL MAX. CHANGE LAYER,ROW,COL MAX. CHANGE LAYER,ROW,COL MAX. CHANGE LAYER,ROW,COL
 ------------------------------------------------------------------------------------------------------------------------------------
   0.1718E-01 (  2,  1, 80)  0.4546E-03 (  2,  1, 80)  0.1667E-04 (  2,  1, 76)  0.9403E-06 (  3,  1, 76)  0.2713E-07 (  4,  1, 76)


                                          ================================================
                                                         FROM TIME =   4630.0     TO    4640.0    

 
 SOLVING FOR HEAD 
 FLOW MODEL IS TRANSIENT
 FLOW MODEL CONTAINS CONSTANT-HEAD CELLS


 MAXIMUM STEPSIZE DURING WHICH ANY PARTICLE CANNOT MOVE MORE THAN ONE CELL
 =  5.219    (WHEN MIN. R.F.=1)  AT K=   4, I=   1, J=  47

 MAXIMUM STEPSIZE WHICH MEETS STABILITY CRITERION OF THE ADVECTION TERM
 (FOR PURE FINITE-DIFFERENCE OPTION, MIXELM=0) 
 =  3.555    (WHEN MIN. R.F.=1)  AT K=   2, I=   1, J=  79


 TOTAL NUMBER OF POINT SOURCES/SINKS PRESENT IN THE FLOW MODEL =    62

 MAXIMUM STEPSIZE WHICH MEETS STABILITY CRITERION OF THE SINK & SOURCE TERM
 =  329.6    (WHEN MIN. R.F.=1)  AT K=   2, I=   1, J= 120

 MAXIMUM STEPSIZE WHICH MEETS STABILITY CRITERION OF THE DISPERSION TERM
 =  20.29    (WHEN MIN. R.F.=1)  AT K=   1, I=   1, J=  31


     1 CALLS TO GCG PACKAGE FOR TRANSPORT TIME STEP   1 IN FLOW TIME STEP 464 STRESS PERIOD   1
     6 TOTAL ITERATIONS

 NO OUTPUT CONTROL FOR STRESS PERIOD    1   TIME STEP 464
 
 SOLVING FOR HEAD 
 FLOW MODEL IS TRANSIENT
 FLOW MODEL CONTAINS CONSTANT-HEAD CELLS


 MAXIMUM STEPSIZE DURING WHICH ANY PARTICLE CANNOT MOVE MORE THAN ONE CELL
 =  5.281    (WHEN MIN. R.F.=1)  AT K=   5, I=   1, J=  47

 MAXIMUM STEPSIZE WHICH MEETS STABILITY CRITERION OF THE ADVECTION TERM
 (FOR PURE FINITE-DIFFERENCE OPTION, MIXELM=0) 
 =  3.612    (WHEN MIN. R.F.=1)  AT K=   2, I=   1, J=  79


 TOTAL NUMBER OF POINT SOURCES/SINKS PRESENT IN THE FLOW MODEL =    62

 MAXIMUM STEPSIZE WHICH MEETS STABILITY CRITERION OF THE SINK & SOURCE TERM
 =  326.8    (WHEN MIN. R.F.=1)  AT K=   2, I=   1, J= 120

 MAXIMUM STEPSIZE WHICH MEETS STABILITY CRITERION OF THE DISPERSION TERM
 =  20.29    (WHEN MIN. R.F.=1)  AT K=   1, I=   1, J=  31
     1 CALLS TO GCG PACKAGE FOR TRANSPORT TIME STEP   2 IN FLOW TIME STEP 464 STRESS PERIOD   1
     6 TOTAL ITERATIONS
 
 SOLVING FOR HEAD 
 FLOW MODEL IS TRANSIENT
 FLOW MODEL CONTAINS CONSTANT-HEAD CELLS


 MAXIMUM STEPSIZE DURING WHICH ANY PARTICLE CANNOT MOVE MORE THAN ONE CELL
 =  5.366    (WHEN MIN. R.F.=1)  AT K=   5, I=   1, J=  47

 MAXIMUM STEPSIZE WHICH MEETS STABILITY CRITERION OF THE ADVECTION TERM
 (FOR PURE FINITE-DIFFERENCE OPTION, MIXELM=0) 
 =  3.830    (WHEN MIN. R.F.=1)  AT K=   2, I=   1, J=  79


 TOTAL NUMBER OF POINT SOURCES/SINKS PRESENT IN THE FLOW MODEL =    62

 MAXIMUM STEPSIZE WHICH MEETS STABILITY CRITERION OF THE SINK & SOURCE TERM
 =  343.5    (WHEN MIN. R.F.=1)  AT K=   2, I=   1, J= 120

 MAXIMUM STEPSIZE WHICH MEETS STABILITY CRITERION OF THE DISPERSION TERM
 =  20.29    (WHEN MIN. R.F.=1)  AT K=   1, I=   1, J=  31
     1 CALLS TO GCG PACKAGE FOR TRANSPORT TIME STEP   3 IN FLOW TIME STEP 464 STRESS PERIOD   1
     6 TOTAL ITERATIONS
 
 SOLVING FOR HEAD 
 FLOW MODEL IS TRANSIENT
 FLOW MODEL CONTAINS CONSTANT-HEAD CELLS


 MAXIMUM STEPSIZE DURING WHICH ANY PARTICLE CANNOT MOVE MORE THAN ONE CELL
 =  5.492    (WHEN MIN. R.F.=1)  AT K=   5, I=   1, J=  47

 MAXIMUM STEPSIZE WHICH MEETS STABILITY CRITERION OF THE ADVECTION TERM
 (FOR PURE FINITE-DIFFERENCE OPTION, MIXELM=0) 
 =  3.944    (WHEN MIN. R.F.=1)  AT K=   2, I=   1, J=  78


 TOTAL NUMBER OF POINT SOURCES/SINKS PRESENT IN THE FLOW MODEL =    62

 MAXIMUM STEPSIZE WHICH MEETS STABILITY CRITERION OF THE SINK & SOURCE TERM
 =  346.7    (WHEN MIN. R.F.=1)  AT K=   2, I=   1, J= 120

 MAXIMUM STEPSIZE WHICH MEETS STABILITY CRITERION OF THE DISPERSION TERM
 =  20.29    (WHEN MIN. R.F.=1)  AT K=   1, I=   1, J=  31
     1 CALLS TO GCG PACKAGE FOR TRANSPORT TIME STEP   4 IN FLOW TIME STEP 464 STRESS PERIOD   1
     5 TOTAL ITERATIONS
  MAXIMUM CONCENTRATION CHANGES FOR EACH ITERATION:
  MAX. CHANGE LAYER,ROW,COL MAX. CHANGE LAYER,ROW,COL MAX. CHANGE LAYER,ROW,COL MAX. CHANGE LAYER,ROW,COL MAX. CHANGE LAYER,ROW,COL
 ------------------------------------------------------------------------------------------------------------------------------------
   0.2251E-01 (  2,  1, 80)  0.7709E-03 (  2,  1, 78)  0.2731E-04 (  3,  1, 78)  0.1558E-05 (  3,  1, 45)  0.5546E-07 (  4,  1, 45)


                                          ================================================
                                                         FROM TIME =   4640.0     TO    4650.0    

 
 SOLVING FOR HEAD 
 FLOW MODEL IS TRANSIENT
 FLOW MODEL CONTAINS CONSTANT-HEAD CELLS


 MAXIMUM STEPSIZE DURING WHICH ANY PARTICLE CANNOT MOVE MORE THAN ONE CELL
 =  5.604    (WHEN MIN. R.F.=1)  AT K=   6, I=   1, J=  47

 MAXIMUM STEPSIZE WHICH MEETS STABILITY CRITERION OF THE ADVECTION TERM
 (FOR PURE FINITE-DIFFERENCE OPTION, MIXELM=0) 
 =  3.775    (WHEN MIN. R.F.=1)  AT K=   2, I=   1, J=  78


 TOTAL NUMBER OF POINT SOURCES/SINKS PRESENT IN THE FLOW MODEL =    62

 MAXIMUM STEPSIZE WHICH MEETS STABILITY CRITERION OF THE SINK & SOURCE TERM
 =  363.3    (WHEN MIN. R.F.=1)  AT K=   2, I=   1, J= 120

 MAXIMUM STEPSIZE WHICH MEETS STABILITY CRITERION OF THE DISPERSION TERM
 =  20.29    (WHEN MIN. R.F.=1)  AT K=   1, I=   1, J=  31


     1 CALLS TO GCG PACKAGE FOR TRANSPORT TIME STEP   1 IN FLOW TIME STEP 465 STRESS PERIOD   1
     6 TOTAL ITERATIONS

 NO OUTPUT CONTROL FOR STRESS PERIOD    1   TIME STEP 465
 
 SOLVING FOR HEAD 
 FLOW MODEL IS TRANSIENT
 FLOW MODEL CONTAINS CONSTANT-HEAD CELLS


 MAXIMUM STEPSIZE DURING WHICH ANY PARTICLE CANNOT MOVE MORE THAN ONE CELL
 =  5.719    (WHEN MIN. R.F.=1)  AT K=   6, I=   1, J=  47

 MAXIMUM STEPSIZE WHICH MEETS STABILITY CRITERION OF THE ADVECTION TERM
 (FOR PURE FINITE-DIFFERENCE OPTION, MIXELM=0) 
 =  3.644    (WHEN MIN. R.F.=1)  AT K=   2, I=   1, J=  78


 TOTAL NUMBER OF POINT SOURCES/SINKS PRESENT IN THE FLOW MODEL =    62

 MAXIMUM STEPSIZE WHICH MEETS STABILITY CRITERION OF THE SINK & SOURCE TERM
 =  347.1    (WHEN MIN. R.F.=1)  AT K=   2, I=   1, J= 120

 MAXIMUM STEPSIZE WHICH MEETS STABILITY CRITERION OF THE DISPERSION TERM
 =  20.29    (WHEN MIN. R.F.=1)  AT K=   1, I=   1, J=  31
     1 CALLS TO GCG PACKAGE FOR TRANSPORT TIME STEP   2 IN FLOW TIME STEP 465 STRESS PERIOD   1
     6 TOTAL ITERATIONS
 
 SOLVING FOR HEAD 
 FLOW MODEL IS TRANSIENT
 FLOW MODEL CONTAINS CONSTANT-HEAD CELLS


 MAXIMUM STEPSIZE DURING WHICH ANY PARTICLE CANNOT MOVE MORE THAN ONE CELL
 =  5.868    (WHEN MIN. R.F.=1)  AT K=   6, I=   1, J=  47

 MAXIMUM STEPSIZE WHICH MEETS STABILITY CRITERION OF THE ADVECTION TERM
 (FOR PURE FINITE-DIFFERENCE OPTION, MIXELM=0) 
 =  3.655    (WHEN MIN. R.F.=1)  AT K=   2, I=   1, J=  78


 TOTAL NUMBER OF POINT SOURCES/SINKS PRESENT IN THE FLOW MODEL =    62

 MAXIMUM STEPSIZE WHICH MEETS STABILITY CRITERION OF THE SINK & SOURCE TERM
 =  367.8    (WHEN MIN. R.F.=1)  AT K=   2, I=   1, J= 120

 MAXIMUM STEPSIZE WHICH MEETS STABILITY CRITERION OF THE DISPERSION TERM
 =  20.29    (WHEN MIN. R.F.=1)  AT K=   1, I=   1, J=  31
     1 CALLS TO GCG PACKAGE FOR TRANSPORT TIME STEP   3 IN FLOW TIME STEP 465 STRESS PERIOD   1
     6 TOTAL ITERATIONS
 
 SOLVING FOR HEAD 
 FLOW MODEL IS TRANSIENT
 FLOW MODEL CONTAINS CONSTANT-HEAD CELLS


 MAXIMUM STEPSIZE DURING WHICH ANY PARTICLE CANNOT MOVE MORE THAN ONE CELL
 =  5.961    (WHEN MIN. R.F.=1)  AT K=   4, I=   1, J=  60

 MAXIMUM STEPSIZE WHICH MEETS STABILITY CRITERION OF THE ADVECTION TERM
 (FOR PURE FINITE-DIFFERENCE OPTION, MIXELM=0) 
 =  3.780    (WHEN MIN. R.F.=1)  AT K=   2, I=   1, J=  78


 TOTAL NUMBER OF POINT SOURCES/SINKS PRESENT IN THE FLOW MODEL =    62

 MAXIMUM STEPSIZE WHICH MEETS STABILITY CRITERION OF THE SINK & SOURCE TERM
 =  381.1    (WHEN MIN. R.F.=1)  AT K=   2, I=   1, J= 120

 MAXIMUM STEPSIZE WHICH MEETS STABILITY CRITERION OF THE DISPERSION TERM
 =  20.29    (WHEN MIN. R.F.=1)  AT K=   1, I=   1, J=  31
     1 CALLS TO GCG PACKAGE FOR TRANSPORT TIME STEP   4 IN FLOW TIME STEP 465 STRESS PERIOD   1
     5 TOTAL ITERATIONS
  MAXIMUM CONCENTRATION CHANGES FOR EACH ITERATION:
  MAX. CHANGE LAYER,ROW,COL MAX. CHANGE LAYER,ROW,COL MAX. CHANGE LAYER,ROW,COL MAX. CHANGE LAYER,ROW,COL MAX. CHANGE LAYER,ROW,COL
 ------------------------------------------------------------------------------------------------------------------------------------
   0.1867E-01 (  2,  1, 79)  0.3903E-03 (  2,  1, 77)  0.1256E-04 (  3,  1, 77)  0.5102E-06 (  3,  1, 45)  0.1219E-07 ( 29,  1, 23)


                                          ================================================
                                                         FROM TIME =   4650.0     TO    4660.0    

 
 SOLVING FOR HEAD 
 FLOW MODEL IS TRANSIENT
 FLOW MODEL CONTAINS CONSTANT-HEAD CELLS


 MAXIMUM STEPSIZE DURING WHICH ANY PARTICLE CANNOT MOVE MORE THAN ONE CELL
 =  5.964    (WHEN MIN. R.F.=1)  AT K=   4, I=   1, J=  60

 MAXIMUM STEPSIZE WHICH MEETS STABILITY CRITERION OF THE ADVECTION TERM
 (FOR PURE FINITE-DIFFERENCE OPTION, MIXELM=0) 
 =  3.923    (WHEN MIN. R.F.=1)  AT K=   2, I=   1, J=  78


 TOTAL NUMBER OF POINT SOURCES/SINKS PRESENT IN THE FLOW MODEL =    62

 MAXIMUM STEPSIZE WHICH MEETS STABILITY CRITERION OF THE SINK & SOURCE TERM
 =  422.1    (WHEN MIN. R.F.=1)  AT K=   2, I=   1, J= 120

 MAXIMUM STEPSIZE WHICH MEETS STABILITY CRITERION OF THE DISPERSION TERM
 =  20.29    (WHEN MIN. R.F.=1)  AT K=   1, I=   1, J=  31


     1 CALLS TO GCG PACKAGE FOR TRANSPORT TIME STEP   1 IN FLOW TIME STEP 466 STRESS PERIOD   1
     6 TOTAL ITERATIONS

 NO OUTPUT CONTROL FOR STRESS PERIOD    1   TIME STEP 466
 
 SOLVING FOR HEAD 
 FLOW MODEL IS TRANSIENT
 FLOW MODEL CONTAINS CONSTANT-HEAD CELLS


 MAXIMUM STEPSIZE DURING WHICH ANY PARTICLE CANNOT MOVE MORE THAN ONE CELL
 =  5.965    (WHEN MIN. R.F.=1)  AT K=   4, I=   1, J=  60

 MAXIMUM STEPSIZE WHICH MEETS STABILITY CRITERION OF THE ADVECTION TERM
 (FOR PURE FINITE-DIFFERENCE OPTION, MIXELM=0) 
 =  3.948    (WHEN MIN. R.F.=1)  AT K=   2, I=   1, J=  43


 TOTAL NUMBER OF POINT SOURCES/SINKS PRESENT IN THE FLOW MODEL =    62

 MAXIMUM STEPSIZE WHICH MEETS STABILITY CRITERION OF THE SINK & SOURCE TERM
 =  399.1    (WHEN MIN. R.F.=1)  AT K=   2, I=   1, J= 120

 MAXIMUM STEPSIZE WHICH MEETS STABILITY CRITERION OF THE DISPERSION TERM
 =  20.29    (WHEN MIN. R.F.=1)  AT K=   1, I=   1, J=  31
     1 CALLS TO GCG PACKAGE FOR TRANSPORT TIME STEP   2 IN FLOW TIME STEP 466 STRESS PERIOD   1
     6 TOTAL ITERATIONS
 
 SOLVING FOR HEAD 
 FLOW MODEL IS TRANSIENT
 FLOW MODEL CONTAINS CONSTANT-HEAD CELLS


 MAXIMUM STEPSIZE DURING WHICH ANY PARTICLE CANNOT MOVE MORE THAN ONE CELL
 =  5.964    (WHEN MIN. R.F.=1)  AT K=   4, I=   1, J=  60

 MAXIMUM STEPSIZE WHICH MEETS STABILITY CRITERION OF THE ADVECTION TERM
 (FOR PURE FINITE-DIFFERENCE OPTION, MIXELM=0) 
 =  3.780    (WHEN MIN. R.F.=1)  AT K=   2, I=   1, J=  43


 TOTAL NUMBER OF POINT SOURCES/SINKS PRESENT IN THE FLOW MODEL =    62

 MAXIMUM STEPSIZE WHICH MEETS STABILITY CRITERION OF THE SINK & SOURCE TERM
 =  412.7    (WHEN MIN. R.F.=1)  AT K=   2, I=   1, J= 120

 MAXIMUM STEPSIZE WHICH MEETS STABILITY CRITERION OF THE DISPERSION TERM
 =  20.29    (WHEN MIN. R.F.=1)  AT K=   1, I=   1, J=  31
     1 CALLS TO GCG PACKAGE FOR TRANSPORT TIME STEP   3 IN FLOW TIME STEP 466 STRESS PERIOD   1
     6 TOTAL ITERATIONS
 
 SOLVING FOR HEAD 
 FLOW MODEL IS TRANSIENT
 FLOW MODEL CONTAINS CONSTANT-HEAD CELLS


 MAXIMUM STEPSIZE DURING WHICH ANY PARTICLE CANNOT MOVE MORE THAN ONE CELL
 =  5.963    (WHEN MIN. R.F.=1)  AT K=   4, I=   1, J=  60

 MAXIMUM STEPSIZE WHICH MEETS STABILITY CRITERION OF THE ADVECTION TERM
 (FOR PURE FINITE-DIFFERENCE OPTION, MIXELM=0) 
 =  3.761    (WHEN MIN. R.F.=1)  AT K=   2, I=   1, J=  43


 TOTAL NUMBER OF POINT SOURCES/SINKS PRESENT IN THE FLOW MODEL =    62

 MAXIMUM STEPSIZE WHICH MEETS STABILITY CRITERION OF THE SINK & SOURCE TERM
 =  420.4    (WHEN MIN. R.F.=1)  AT K=   2, I=   1, J= 120

 MAXIMUM STEPSIZE WHICH MEETS STABILITY CRITERION OF THE DISPERSION TERM
 =  20.29    (WHEN MIN. R.F.=1)  AT K=   1, I=   1, J=  31
     1 CALLS TO GCG PACKAGE FOR TRANSPORT TIME STEP   4 IN FLOW TIME STEP 466 STRESS PERIOD   1
     5 TOTAL ITERATIONS
  MAXIMUM CONCENTRATION CHANGES FOR EACH ITERATION:
  MAX. CHANGE LAYER,ROW,COL MAX. CHANGE LAYER,ROW,COL MAX. CHANGE LAYER,ROW,COL MAX. CHANGE LAYER,ROW,COL MAX. CHANGE LAYER,ROW,COL
 ------------------------------------------------------------------------------------------------------------------------------------
   0.1345E-01 (  2,  1, 31)  0.3063E-03 (  2,  1, 77)  0.7038E-05 (  3,  1, 77)  0.1935E-06 (  3,  1, 79)  0.5981E-08 (  4,  1, 78)


                                          ================================================
                                                         FROM TIME =   4660.0     TO    4670.0    

 
 SOLVING FOR HEAD 
 FLOW MODEL IS TRANSIENT
 FLOW MODEL CONTAINS CONSTANT-HEAD CELLS


 MAXIMUM STEPSIZE DURING WHICH ANY PARTICLE CANNOT MOVE MORE THAN ONE CELL
 =  5.967    (WHEN MIN. R.F.=1)  AT K=   4, I=   1, J=  60

 MAXIMUM STEPSIZE WHICH MEETS STABILITY CRITERION OF THE ADVECTION TERM
 (FOR PURE FINITE-DIFFERENCE OPTION, MIXELM=0) 
 =  3.789    (WHEN MIN. R.F.=1)  AT K=   2, I=   1, J=  43


 TOTAL NUMBER OF POINT SOURCES/SINKS PRESENT IN THE FLOW MODEL =    62

 MAXIMUM STEPSIZE WHICH MEETS STABILITY CRITERION OF THE SINK & SOURCE TERM
 =  518.7    (WHEN MIN. R.F.=1)  AT K=   2, I=   1, J= 120

 MAXIMUM STEPSIZE WHICH MEETS STABILITY CRITERION OF THE DISPERSION TERM
 =  20.29    (WHEN MIN. R.F.=1)  AT K=   1, I=   1, J=  31


     1 CALLS TO GCG PACKAGE FOR TRANSPORT TIME STEP   1 IN FLOW TIME STEP 467 STRESS PERIOD   1
     6 TOTAL ITERATIONS

 NO OUTPUT CONTROL FOR STRESS PERIOD    1   TIME STEP 467
 
 SOLVING FOR HEAD 
 FLOW MODEL IS TRANSIENT
 FLOW MODEL CONTAINS CONSTANT-HEAD CELLS


 MAXIMUM STEPSIZE DURING WHICH ANY PARTICLE CANNOT MOVE MORE THAN ONE CELL
 =  5.967    (WHEN MIN. R.F.=1)  AT K=   4, I=   1, J=  60

 MAXIMUM STEPSIZE WHICH MEETS STABILITY CRITERION OF THE ADVECTION TERM
 (FOR PURE FINITE-DIFFERENCE OPTION, MIXELM=0) 
 =  3.869    (WHEN MIN. R.F.=1)  AT K=   2, I=   1, J=  77


 TOTAL NUMBER OF POINT SOURCES/SINKS PRESENT IN THE FLOW MODEL =    62

 MAXIMUM STEPSIZE WHICH MEETS STABILITY CRITERION OF THE SINK & SOURCE TERM
 =  498.2    (WHEN MIN. R.F.=1)  AT K=   2, I=   1, J= 120

 MAXIMUM STEPSIZE WHICH MEETS STABILITY CRITERION OF THE DISPERSION TERM
 =  20.29    (WHEN MIN. R.F.=1)  AT K=   1, I=   1, J=  31
     1 CALLS TO GCG PACKAGE FOR TRANSPORT TIME STEP   2 IN FLOW TIME STEP 467 STRESS PERIOD   1
     6 TOTAL ITERATIONS
 
 SOLVING FOR HEAD 
 FLOW MODEL IS TRANSIENT
 FLOW MODEL CONTAINS CONSTANT-HEAD CELLS


 MAXIMUM STEPSIZE DURING WHICH ANY PARTICLE CANNOT MOVE MORE THAN ONE CELL
 =  5.967    (WHEN MIN. R.F.=1)  AT K=   4, I=   1, J=  60

 MAXIMUM STEPSIZE WHICH MEETS STABILITY CRITERION OF THE ADVECTION TERM
 (FOR PURE FINITE-DIFFERENCE OPTION, MIXELM=0) 
 =  4.040    (WHEN MIN. R.F.=1)  AT K=   2, I=   1, J=  77


 TOTAL NUMBER OF POINT SOURCES/SINKS PRESENT IN THE FLOW MODEL =    62

 MAXIMUM STEPSIZE WHICH MEETS STABILITY CRITERION OF THE SINK & SOURCE TERM
 =  485.2    (WHEN MIN. R.F.=1)  AT K=   2, I=   1, J= 120

 MAXIMUM STEPSIZE WHICH MEETS STABILITY CRITERION OF THE DISPERSION TERM
 =  20.29    (WHEN MIN. R.F.=1)  AT K=   1, I=   1, J=  31
     1 CALLS TO GCG PACKAGE FOR TRANSPORT TIME STEP   3 IN FLOW TIME STEP 467 STRESS PERIOD   1
     6 TOTAL ITERATIONS
 
 SOLVING FOR HEAD 
 FLOW MODEL IS TRANSIENT
 FLOW MODEL CONTAINS CONSTANT-HEAD CELLS


 MAXIMUM STEPSIZE DURING WHICH ANY PARTICLE CANNOT MOVE MORE THAN ONE CELL
 =  5.967    (WHEN MIN. R.F.=1)  AT K=   4, I=   1, J=  60

 MAXIMUM STEPSIZE WHICH MEETS STABILITY CRITERION OF THE ADVECTION TERM
 (FOR PURE FINITE-DIFFERENCE OPTION, MIXELM=0) 
 =  4.077    (WHEN MIN. R.F.=1)  AT K=   2, I=   1, J=  44


 TOTAL NUMBER OF POINT SOURCES/SINKS PRESENT IN THE FLOW MODEL =    62

 MAXIMUM STEPSIZE WHICH MEETS STABILITY CRITERION OF THE SINK & SOURCE TERM
 =  465.7    (WHEN MIN. R.F.=1)  AT K=   2, I=   1, J= 120

 MAXIMUM STEPSIZE WHICH MEETS STABILITY CRITERION OF THE DISPERSION TERM
 =  20.29    (WHEN MIN. R.F.=1)  AT K=   1, I=   1, J=  31
     1 CALLS TO GCG PACKAGE FOR TRANSPORT TIME STEP   4 IN FLOW TIME STEP 467 STRESS PERIOD   1
     5 TOTAL ITERATIONS
  MAXIMUM CONCENTRATION CHANGES FOR EACH ITERATION:
  MAX. CHANGE LAYER,ROW,COL MAX. CHANGE LAYER,ROW,COL MAX. CHANGE LAYER,ROW,COL MAX. CHANGE LAYER,ROW,COL MAX. CHANGE LAYER,ROW,COL
 ------------------------------------------------------------------------------------------------------------------------------------
   0.1665E-01 (  2,  1, 78)  0.3820E-03 (  2,  1, 76)  0.9274E-05 (  3,  1, 46)  0.3371E-06 (  3,  1, 79)  0.1057E-07 (  4,  1, 75)


                                          ================================================
                                                         FROM TIME =   4670.0     TO    4680.0    

 
 SOLVING FOR HEAD 
 FLOW MODEL IS TRANSIENT
 FLOW MODEL CONTAINS CONSTANT-HEAD CELLS


 MAXIMUM STEPSIZE DURING WHICH ANY PARTICLE CANNOT MOVE MORE THAN ONE CELL
 =  5.971    (WHEN MIN. R.F.=1)  AT K=   4, I=   1, J=  60

 MAXIMUM STEPSIZE WHICH MEETS STABILITY CRITERION OF THE ADVECTION TERM
 (FOR PURE FINITE-DIFFERENCE OPTION, MIXELM=0) 
 =  3.998    (WHEN MIN. R.F.=1)  AT K=   2, I=   1, J=  44


 TOTAL NUMBER OF POINT SOURCES/SINKS PRESENT IN THE FLOW MODEL =    62

 MAXIMUM STEPSIZE WHICH MEETS STABILITY CRITERION OF THE SINK & SOURCE TERM
 =  510.7    (WHEN MIN. R.F.=1)  AT K=   2, I=   1, J= 120

 MAXIMUM STEPSIZE WHICH MEETS STABILITY CRITERION OF THE DISPERSION TERM
 =  20.29    (WHEN MIN. R.F.=1)  AT K=   1, I=   1, J=  31


     1 CALLS TO GCG PACKAGE FOR TRANSPORT TIME STEP   1 IN FLOW TIME STEP 468 STRESS PERIOD   1
     6 TOTAL ITERATIONS

 NO OUTPUT CONTROL FOR STRESS PERIOD    1   TIME STEP 468
 
 SOLVING FOR HEAD 
 FLOW MODEL IS TRANSIENT
 FLOW MODEL CONTAINS CONSTANT-HEAD CELLS


 MAXIMUM STEPSIZE DURING WHICH ANY PARTICLE CANNOT MOVE MORE THAN ONE CELL
 =  5.970    (WHEN MIN. R.F.=1)  AT K=   4, I=   1, J=  60

 MAXIMUM STEPSIZE WHICH MEETS STABILITY CRITERION OF THE ADVECTION TERM
 (FOR PURE FINITE-DIFFERENCE OPTION, MIXELM=0) 
 =  3.926    (WHEN MIN. R.F.=1)  AT K=   2, I=   1, J=  44


 TOTAL NUMBER OF POINT SOURCES/SINKS PRESENT IN THE FLOW MODEL =    62

 MAXIMUM STEPSIZE WHICH MEETS STABILITY CRITERION OF THE SINK & SOURCE TERM
 =  483.4    (WHEN MIN. R.F.=1)  AT K=   2, I=   1, J= 120

 MAXIMUM STEPSIZE WHICH MEETS STABILITY CRITERION OF THE DISPERSION TERM
 =  20.29    (WHEN MIN. R.F.=1)  AT K=   1, I=   1, J=  31
     1 CALLS TO GCG PACKAGE FOR TRANSPORT TIME STEP   2 IN FLOW TIME STEP 468 STRESS PERIOD   1
     6 TOTAL ITERATIONS
 
 SOLVING FOR HEAD 
 FLOW MODEL IS TRANSIENT
 FLOW MODEL CONTAINS CONSTANT-HEAD CELLS


 MAXIMUM STEPSIZE DURING WHICH ANY PARTICLE CANNOT MOVE MORE THAN ONE CELL
 =  5.969    (WHEN MIN. R.F.=1)  AT K=   4, I=   1, J=  60

 MAXIMUM STEPSIZE WHICH MEETS STABILITY CRITERION OF THE ADVECTION TERM
 (FOR PURE FINITE-DIFFERENCE OPTION, MIXELM=0) 
 =  3.990    (WHEN MIN. R.F.=1)  AT K=   2, I=   1, J=  44


 TOTAL NUMBER OF POINT SOURCES/SINKS PRESENT IN THE FLOW MODEL =    62

 MAXIMUM STEPSIZE WHICH MEETS STABILITY CRITERION OF THE SINK & SOURCE TERM
 =  532.8    (WHEN MIN. R.F.=1)  AT K=   2, I=   1, J= 120

 MAXIMUM STEPSIZE WHICH MEETS STABILITY CRITERION OF THE DISPERSION TERM
 =  20.29    (WHEN MIN. R.F.=1)  AT K=   1, I=   1, J=  31
     1 CALLS TO GCG PACKAGE FOR TRANSPORT TIME STEP   3 IN FLOW TIME STEP 468 STRESS PERIOD   1
     6 TOTAL ITERATIONS
 
 SOLVING FOR HEAD 
 FLOW MODEL IS TRANSIENT
 FLOW MODEL CONTAINS CONSTANT-HEAD CELLS


 MAXIMUM STEPSIZE DURING WHICH ANY PARTICLE CANNOT MOVE MORE THAN ONE CELL
 =  5.970    (WHEN MIN. R.F.=1)  AT K=   4, I=   1, J=  60

 MAXIMUM STEPSIZE WHICH MEETS STABILITY CRITERION OF THE ADVECTION TERM
 (FOR PURE FINITE-DIFFERENCE OPTION, MIXELM=0) 
 =  4.169    (WHEN MIN. R.F.=1)  AT K=   2, I=   1, J=  44


 TOTAL NUMBER OF POINT SOURCES/SINKS PRESENT IN THE FLOW MODEL =    62

 MAXIMUM STEPSIZE WHICH MEETS STABILITY CRITERION OF THE SINK & SOURCE TERM
 =  519.2    (WHEN MIN. R.F.=1)  AT K=   2, I=   1, J= 120

 MAXIMUM STEPSIZE WHICH MEETS STABILITY CRITERION OF THE DISPERSION TERM
 =  20.29    (WHEN MIN. R.F.=1)  AT K=   1, I=   1, J=  31
     1 CALLS TO GCG PACKAGE FOR TRANSPORT TIME STEP   4 IN FLOW TIME STEP 468 STRESS PERIOD   1
     5 TOTAL ITERATIONS
  MAXIMUM CONCENTRATION CHANGES FOR EACH ITERATION:
  MAX. CHANGE LAYER,ROW,COL MAX. CHANGE LAYER,ROW,COL MAX. CHANGE LAYER,ROW,COL MAX. CHANGE LAYER,ROW,COL MAX. CHANGE LAYER,ROW,COL
 ------------------------------------------------------------------------------------------------------------------------------------
   0.1134E-01 (  2,  1, 77)  0.1764E-03 (  2,  1, 46)  0.4218E-05 (  2,  1, 78)  0.1015E-06 (  3,  1, 78)  0.1745E-08 (  4,  1, 46)


                                          ================================================
                                                         FROM TIME =   4680.0     TO    4690.0    

 
 SOLVING FOR HEAD 
 FLOW MODEL IS TRANSIENT
 FLOW MODEL CONTAINS CONSTANT-HEAD CELLS


 MAXIMUM STEPSIZE DURING WHICH ANY PARTICLE CANNOT MOVE MORE THAN ONE CELL
 =  5.974    (WHEN MIN. R.F.=1)  AT K=   4, I=   1, J=  60

 MAXIMUM STEPSIZE WHICH MEETS STABILITY CRITERION OF THE ADVECTION TERM
 (FOR PURE FINITE-DIFFERENCE OPTION, MIXELM=0) 
 =  4.273    (WHEN MIN. R.F.=1)  AT K=   2, I=   1, J=  44


 TOTAL NUMBER OF POINT SOURCES/SINKS PRESENT IN THE FLOW MODEL =    62

 MAXIMUM STEPSIZE WHICH MEETS STABILITY CRITERION OF THE SINK & SOURCE TERM
 =  550.9    (WHEN MIN. R.F.=1)  AT K=   2, I=   1, J= 120

 MAXIMUM STEPSIZE WHICH MEETS STABILITY CRITERION OF THE DISPERSION TERM
 =  20.29    (WHEN MIN. R.F.=1)  AT K=   1, I=   1, J=  31


     1 CALLS TO GCG PACKAGE FOR TRANSPORT TIME STEP   1 IN FLOW TIME STEP 469 STRESS PERIOD   1
     6 TOTAL ITERATIONS

 NO OUTPUT CONTROL FOR STRESS PERIOD    1   TIME STEP 469
 
 SOLVING FOR HEAD 
 FLOW MODEL IS TRANSIENT
 FLOW MODEL CONTAINS CONSTANT-HEAD CELLS


 MAXIMUM STEPSIZE DURING WHICH ANY PARTICLE CANNOT MOVE MORE THAN ONE CELL
 =  5.976    (WHEN MIN. R.F.=1)  AT K=   4, I=   1, J=  60

 MAXIMUM STEPSIZE WHICH MEETS STABILITY CRITERION OF THE ADVECTION TERM
 (FOR PURE FINITE-DIFFERENCE OPTION, MIXELM=0) 
 =  4.478    (WHEN MIN. R.F.=1)  AT K=  30, I=   1, J=  25


 TOTAL NUMBER OF POINT SOURCES/SINKS PRESENT IN THE FLOW MODEL =    62

 MAXIMUM STEPSIZE WHICH MEETS STABILITY CRITERION OF THE SINK & SOURCE TERM
 =  478.6    (WHEN MIN. R.F.=1)  AT K=   2, I=   1, J= 120

 MAXIMUM STEPSIZE WHICH MEETS STABILITY CRITERION OF THE DISPERSION TERM
 =  20.29    (WHEN MIN. R.F.=1)  AT K=   1, I=   1, J=  31
     1 CALLS TO GCG PACKAGE FOR TRANSPORT TIME STEP   2 IN FLOW TIME STEP 469 STRESS PERIOD   1
     6 TOTAL ITERATIONS
 
 SOLVING FOR HEAD 
 FLOW MODEL IS TRANSIENT
 FLOW MODEL CONTAINS CONSTANT-HEAD CELLS


 MAXIMUM STEPSIZE DURING WHICH ANY PARTICLE CANNOT MOVE MORE THAN ONE CELL
 =  5.977    (WHEN MIN. R.F.=1)  AT K=   4, I=   1, J=  60

 MAXIMUM STEPSIZE WHICH MEETS STABILITY CRITERION OF THE ADVECTION TERM
 (FOR PURE FINITE-DIFFERENCE OPTION, MIXELM=0) 
 =  4.473    (WHEN MIN. R.F.=1)  AT K=   2, I=   1, J=  45


 TOTAL NUMBER OF POINT SOURCES/SINKS PRESENT IN THE FLOW MODEL =    62

 MAXIMUM STEPSIZE WHICH MEETS STABILITY CRITERION OF THE SINK & SOURCE TERM
 =  464.7    (WHEN MIN. R.F.=1)  AT K=   2, I=   1, J= 120

 MAXIMUM STEPSIZE WHICH MEETS STABILITY CRITERION OF THE DISPERSION TERM
 =  20.29    (WHEN MIN. R.F.=1)  AT K=   1, I=   1, J=  31
     1 CALLS TO GCG PACKAGE FOR TRANSPORT TIME STEP   3 IN FLOW TIME STEP 469 STRESS PERIOD   1
     6 TOTAL ITERATIONS
 
 SOLVING FOR HEAD 
 FLOW MODEL IS TRANSIENT
 FLOW MODEL CONTAINS CONSTANT-HEAD CELLS


 MAXIMUM STEPSIZE DURING WHICH ANY PARTICLE CANNOT MOVE MORE THAN ONE CELL
 =  5.980    (WHEN MIN. R.F.=1)  AT K=   4, I=   1, J=  60

 MAXIMUM STEPSIZE WHICH MEETS STABILITY CRITERION OF THE ADVECTION TERM
 (FOR PURE FINITE-DIFFERENCE OPTION, MIXELM=0) 
 =  4.327    (WHEN MIN. R.F.=1)  AT K=   2, I=   1, J=  45


 TOTAL NUMBER OF POINT SOURCES/SINKS PRESENT IN THE FLOW MODEL =    62

 MAXIMUM STEPSIZE WHICH MEETS STABILITY CRITERION OF THE SINK & SOURCE TERM
 =  438.6    (WHEN MIN. R.F.=1)  AT K=   2, I=   1, J= 120

 MAXIMUM STEPSIZE WHICH MEETS STABILITY CRITERION OF THE DISPERSION TERM
 =  20.29    (WHEN MIN. R.F.=1)  AT K=   1, I=   1, J=  31
     1 CALLS TO GCG PACKAGE FOR TRANSPORT TIME STEP   4 IN FLOW TIME STEP 469 STRESS PERIOD   1
     4 TOTAL ITERATIONS
  MAXIMUM CONCENTRATION CHANGES FOR EACH ITERATION:
  MAX. CHANGE LAYER,ROW,COL MAX. CHANGE LAYER,ROW,COL MAX. CHANGE LAYER,ROW,COL MAX. CHANGE LAYER,ROW,COL MAX. CHANGE LAYER,ROW,COL
 ------------------------------------------------------------------------------------------------------------------------------------
   0.3325E-02 (  2,  1, 83)  0.1994E-04 (  2,  1, 83)  0.1183E-06 (  2,  1, 84)  0.8892E-09 (  3,  1, 84)


                                          ================================================
                                                         FROM TIME =   4690.0     TO    4700.0    

 
 SOLVING FOR HEAD 
 FLOW MODEL IS TRANSIENT
 FLOW MODEL CONTAINS CONSTANT-HEAD CELLS


 MAXIMUM STEPSIZE DURING WHICH ANY PARTICLE CANNOT MOVE MORE THAN ONE CELL
 =  5.983    (WHEN MIN. R.F.=1)  AT K=   4, I=   1, J=  60

 MAXIMUM STEPSIZE WHICH MEETS STABILITY CRITERION OF THE ADVECTION TERM
 (FOR PURE FINITE-DIFFERENCE OPTION, MIXELM=0) 
 =  4.324    (WHEN MIN. R.F.=1)  AT K=   2, I=   1, J=  45


 TOTAL NUMBER OF POINT SOURCES/SINKS PRESENT IN THE FLOW MODEL =    62

 MAXIMUM STEPSIZE WHICH MEETS STABILITY CRITERION OF THE SINK & SOURCE TERM
 =  535.3    (WHEN MIN. R.F.=1)  AT K=   2, I=   1, J= 120

 MAXIMUM STEPSIZE WHICH MEETS STABILITY CRITERION OF THE DISPERSION TERM
 =  20.29    (WHEN MIN. R.F.=1)  AT K=   1, I=   1, J=  31


     1 CALLS TO GCG PACKAGE FOR TRANSPORT TIME STEP   1 IN FLOW TIME STEP 470 STRESS PERIOD   1
     6 TOTAL ITERATIONS

 NO OUTPUT CONTROL FOR STRESS PERIOD    1   TIME STEP 470
 
 SOLVING FOR HEAD 
 FLOW MODEL IS TRANSIENT
 FLOW MODEL CONTAINS CONSTANT-HEAD CELLS


 MAXIMUM STEPSIZE DURING WHICH ANY PARTICLE CANNOT MOVE MORE THAN ONE CELL
 =  5.989    (WHEN MIN. R.F.=1)  AT K=   4, I=   1, J=  60

 MAXIMUM STEPSIZE WHICH MEETS STABILITY CRITERION OF THE ADVECTION TERM
 (FOR PURE FINITE-DIFFERENCE OPTION, MIXELM=0) 
 =  4.369    (WHEN MIN. R.F.=1)  AT K=   2, I=   1, J=  45


 TOTAL NUMBER OF POINT SOURCES/SINKS PRESENT IN THE FLOW MODEL =    62

 MAXIMUM STEPSIZE WHICH MEETS STABILITY CRITERION OF THE SINK & SOURCE TERM
 =  486.4    (WHEN MIN. R.F.=1)  AT K=   2, I=   1, J= 120

 MAXIMUM STEPSIZE WHICH MEETS STABILITY CRITERION OF THE DISPERSION TERM
 =  20.29    (WHEN MIN. R.F.=1)  AT K=   1, I=   1, J=  31
     1 CALLS TO GCG PACKAGE FOR TRANSPORT TIME STEP   2 IN FLOW TIME STEP 470 STRESS PERIOD   1
     6 TOTAL ITERATIONS
 
 SOLVING FOR HEAD 
 FLOW MODEL IS TRANSIENT
 FLOW MODEL CONTAINS CONSTANT-HEAD CELLS


 MAXIMUM STEPSIZE DURING WHICH ANY PARTICLE CANNOT MOVE MORE THAN ONE CELL
 =  5.685    (WHEN MIN. R.F.=1)  AT K=   4, I=   1, J=  74

 MAXIMUM STEPSIZE WHICH MEETS STABILITY CRITERION OF THE ADVECTION TERM
 (FOR PURE FINITE-DIFFERENCE OPTION, MIXELM=0) 
 =  4.225    (WHEN MIN. R.F.=1)  AT K=   2, I=   1, J=  81


 TOTAL NUMBER OF POINT SOURCES/SINKS PRESENT IN THE FLOW MODEL =    62

 MAXIMUM STEPSIZE WHICH MEETS STABILITY CRITERION OF THE SINK & SOURCE TERM
 =  451.0    (WHEN MIN. R.F.=1)  AT K=   2, I=   1, J= 120

 MAXIMUM STEPSIZE WHICH MEETS STABILITY CRITERION OF THE DISPERSION TERM
 =  20.29    (WHEN MIN. R.F.=1)  AT K=   1, I=   1, J=  31
     1 CALLS TO GCG PACKAGE FOR TRANSPORT TIME STEP   3 IN FLOW TIME STEP 470 STRESS PERIOD   1
     6 TOTAL ITERATIONS
 
 SOLVING FOR HEAD 
 FLOW MODEL IS TRANSIENT
 FLOW MODEL CONTAINS CONSTANT-HEAD CELLS


 MAXIMUM STEPSIZE DURING WHICH ANY PARTICLE CANNOT MOVE MORE THAN ONE CELL
 =  5.387    (WHEN MIN. R.F.=1)  AT K=   4, I=   1, J=  74

 MAXIMUM STEPSIZE WHICH MEETS STABILITY CRITERION OF THE ADVECTION TERM
 (FOR PURE FINITE-DIFFERENCE OPTION, MIXELM=0) 
 =  3.911    (WHEN MIN. R.F.=1)  AT K=   2, I=   1, J=  81


 TOTAL NUMBER OF POINT SOURCES/SINKS PRESENT IN THE FLOW MODEL =    62

 MAXIMUM STEPSIZE WHICH MEETS STABILITY CRITERION OF THE SINK & SOURCE TERM
 =  424.2    (WHEN MIN. R.F.=1)  AT K=   2, I=   1, J= 120

 MAXIMUM STEPSIZE WHICH MEETS STABILITY CRITERION OF THE DISPERSION TERM
 =  20.29    (WHEN MIN. R.F.=1)  AT K=   1, I=   1, J=  31
     1 CALLS TO GCG PACKAGE FOR TRANSPORT TIME STEP   4 IN FLOW TIME STEP 470 STRESS PERIOD   1
     3 TOTAL ITERATIONS
  MAXIMUM CONCENTRATION CHANGES FOR EACH ITERATION:
  MAX. CHANGE LAYER,ROW,COL MAX. CHANGE LAYER,ROW,COL MAX. CHANGE LAYER,ROW,COL MAX. CHANGE LAYER,ROW,COL MAX. CHANGE LAYER,ROW,COL
 ------------------------------------------------------------------------------------------------------------------------------------
   0.2597E-02 (  2,  1, 76)  0.9958E-05 (  2,  1, 82)  0.4871E-07 (  2,  1, 77)


                                          ================================================
                                                         FROM TIME =   4700.0     TO    4710.0    

 
 SOLVING FOR HEAD 
 FLOW MODEL IS TRANSIENT
 FLOW MODEL CONTAINS CONSTANT-HEAD CELLS


 MAXIMUM STEPSIZE DURING WHICH ANY PARTICLE CANNOT MOVE MORE THAN ONE CELL
 =  5.368    (WHEN MIN. R.F.=1)  AT K=   4, I=   1, J=  74

 MAXIMUM STEPSIZE WHICH MEETS STABILITY CRITERION OF THE ADVECTION TERM
 (FOR PURE FINITE-DIFFERENCE OPTION, MIXELM=0) 
 =  3.900    (WHEN MIN. R.F.=1)  AT K=   2, I=   1, J=  81


 TOTAL NUMBER OF POINT SOURCES/SINKS PRESENT IN THE FLOW MODEL =    62

 MAXIMUM STEPSIZE WHICH MEETS STABILITY CRITERION OF THE SINK & SOURCE TERM
 =  479.2    (WHEN MIN. R.F.=1)  AT K=   2, I=   1, J= 120

 MAXIMUM STEPSIZE WHICH MEETS STABILITY CRITERION OF THE DISPERSION TERM
 =  20.29    (WHEN MIN. R.F.=1)  AT K=   1, I=   1, J=  31


     1 CALLS TO GCG PACKAGE FOR TRANSPORT TIME STEP   1 IN FLOW TIME STEP 471 STRESS PERIOD   1
     6 TOTAL ITERATIONS

 NO OUTPUT CONTROL FOR STRESS PERIOD    1   TIME STEP 471
 
 SOLVING FOR HEAD 
 FLOW MODEL IS TRANSIENT
 FLOW MODEL CONTAINS CONSTANT-HEAD CELLS


 MAXIMUM STEPSIZE DURING WHICH ANY PARTICLE CANNOT MOVE MORE THAN ONE CELL
 =  5.182    (WHEN MIN. R.F.=1)  AT K=   4, I=   1, J=  74

 MAXIMUM STEPSIZE WHICH MEETS STABILITY CRITERION OF THE ADVECTION TERM
 (FOR PURE FINITE-DIFFERENCE OPTION, MIXELM=0) 
 =  3.842    (WHEN MIN. R.F.=1)  AT K=   2, I=   1, J=  81


 TOTAL NUMBER OF POINT SOURCES/SINKS PRESENT IN THE FLOW MODEL =    62

 MAXIMUM STEPSIZE WHICH MEETS STABILITY CRITERION OF THE SINK & SOURCE TERM
 =  438.3    (WHEN MIN. R.F.=1)  AT K=   2, I=   1, J= 120

 MAXIMUM STEPSIZE WHICH MEETS STABILITY CRITERION OF THE DISPERSION TERM
 =  20.29    (WHEN MIN. R.F.=1)  AT K=   1, I=   1, J=  31
     1 CALLS TO GCG PACKAGE FOR TRANSPORT TIME STEP   2 IN FLOW TIME STEP 471 STRESS PERIOD   1
     6 TOTAL ITERATIONS
 
 SOLVING FOR HEAD 
 FLOW MODEL IS TRANSIENT
 FLOW MODEL CONTAINS CONSTANT-HEAD CELLS


 MAXIMUM STEPSIZE DURING WHICH ANY PARTICLE CANNOT MOVE MORE THAN ONE CELL
 =  5.058    (WHEN MIN. R.F.=1)  AT K=   4, I=   1, J=  74

 MAXIMUM STEPSIZE WHICH MEETS STABILITY CRITERION OF THE ADVECTION TERM
 (FOR PURE FINITE-DIFFERENCE OPTION, MIXELM=0) 
 =  4.013    (WHEN MIN. R.F.=1)  AT K=   2, I=   1, J=  81


 TOTAL NUMBER OF POINT SOURCES/SINKS PRESENT IN THE FLOW MODEL =    62

 MAXIMUM STEPSIZE WHICH MEETS STABILITY CRITERION OF THE SINK & SOURCE TERM
 =  424.6    (WHEN MIN. R.F.=1)  AT K=   2, I=   1, J= 120

 MAXIMUM STEPSIZE WHICH MEETS STABILITY CRITERION OF THE DISPERSION TERM
 =  20.29    (WHEN MIN. R.F.=1)  AT K=   1, I=   1, J=  31
     1 CALLS TO GCG PACKAGE FOR TRANSPORT TIME STEP   3 IN FLOW TIME STEP 471 STRESS PERIOD   1
     6 TOTAL ITERATIONS
 
 SOLVING FOR HEAD 
 FLOW MODEL IS TRANSIENT
 FLOW MODEL CONTAINS CONSTANT-HEAD CELLS


 MAXIMUM STEPSIZE DURING WHICH ANY PARTICLE CANNOT MOVE MORE THAN ONE CELL
 =  4.996    (WHEN MIN. R.F.=1)  AT K=   4, I=   1, J=  74

 MAXIMUM STEPSIZE WHICH MEETS STABILITY CRITERION OF THE ADVECTION TERM
 (FOR PURE FINITE-DIFFERENCE OPTION, MIXELM=0) 
 =  3.830    (WHEN MIN. R.F.=1)  AT K=   2, I=   1, J=  80


 TOTAL NUMBER OF POINT SOURCES/SINKS PRESENT IN THE FLOW MODEL =    62

 MAXIMUM STEPSIZE WHICH MEETS STABILITY CRITERION OF THE SINK & SOURCE TERM
 =  408.7    (WHEN MIN. R.F.=1)  AT K=   2, I=   1, J= 120

 MAXIMUM STEPSIZE WHICH MEETS STABILITY CRITERION OF THE DISPERSION TERM
 =  20.29    (WHEN MIN. R.F.=1)  AT K=   1, I=   1, J=  31
     1 CALLS TO GCG PACKAGE FOR TRANSPORT TIME STEP   4 IN FLOW TIME STEP 471 STRESS PERIOD   1
     5 TOTAL ITERATIONS
  MAXIMUM CONCENTRATION CHANGES FOR EACH ITERATION:
  MAX. CHANGE LAYER,ROW,COL MAX. CHANGE LAYER,ROW,COL MAX. CHANGE LAYER,ROW,COL MAX. CHANGE LAYER,ROW,COL MAX. CHANGE LAYER,ROW,COL
 ------------------------------------------------------------------------------------------------------------------------------------
   0.1464E-01 (  2,  1, 82)  0.2610E-03 (  3,  1, 43)  0.7387E-05 (  3,  1, 80)  0.1793E-06 (  3,  1, 32)  0.4765E-08 (  4,  1, 81)


                                          ================================================
                                                         FROM TIME =   4710.0     TO    4720.0    

 
 SOLVING FOR HEAD 
 FLOW MODEL IS TRANSIENT
 FLOW MODEL CONTAINS CONSTANT-HEAD CELLS


 MAXIMUM STEPSIZE DURING WHICH ANY PARTICLE CANNOT MOVE MORE THAN ONE CELL
 =  4.988    (WHEN MIN. R.F.=1)  AT K=   4, I=   1, J=  74

 MAXIMUM STEPSIZE WHICH MEETS STABILITY CRITERION OF THE ADVECTION TERM
 (FOR PURE FINITE-DIFFERENCE OPTION, MIXELM=0) 
 =  3.724    (WHEN MIN. R.F.=1)  AT K=   2, I=   1, J=  80


 TOTAL NUMBER OF POINT SOURCES/SINKS PRESENT IN THE FLOW MODEL =    62

 MAXIMUM STEPSIZE WHICH MEETS STABILITY CRITERION OF THE SINK & SOURCE TERM
 =  444.3    (WHEN MIN. R.F.=1)  AT K=   2, I=   1, J= 120

 MAXIMUM STEPSIZE WHICH MEETS STABILITY CRITERION OF THE DISPERSION TERM
 =  20.29    (WHEN MIN. R.F.=1)  AT K=   1, I=   1, J=  31


     1 CALLS TO GCG PACKAGE FOR TRANSPORT TIME STEP   1 IN FLOW TIME STEP 472 STRESS PERIOD   1
     6 TOTAL ITERATIONS

 NO OUTPUT CONTROL FOR STRESS PERIOD    1   TIME STEP 472
 
 SOLVING FOR HEAD 
 FLOW MODEL IS TRANSIENT
 FLOW MODEL CONTAINS CONSTANT-HEAD CELLS


 MAXIMUM STEPSIZE DURING WHICH ANY PARTICLE CANNOT MOVE MORE THAN ONE CELL
 =  5.003    (WHEN MIN. R.F.=1)  AT K=   4, I=   1, J=  74

 MAXIMUM STEPSIZE WHICH MEETS STABILITY CRITERION OF THE ADVECTION TERM
 (FOR PURE FINITE-DIFFERENCE OPTION, MIXELM=0) 
 =  3.592    (WHEN MIN. R.F.=1)  AT K=   2, I=   1, J=  80


 TOTAL NUMBER OF POINT SOURCES/SINKS PRESENT IN THE FLOW MODEL =    62

 MAXIMUM STEPSIZE WHICH MEETS STABILITY CRITERION OF THE SINK & SOURCE TERM
 =  408.8    (WHEN MIN. R.F.=1)  AT K=   2, I=   1, J= 120

 MAXIMUM STEPSIZE WHICH MEETS STABILITY CRITERION OF THE DISPERSION TERM
 =  20.29    (WHEN MIN. R.F.=1)  AT K=   1, I=   1, J=  31
     1 CALLS TO GCG PACKAGE FOR TRANSPORT TIME STEP   2 IN FLOW TIME STEP 472 STRESS PERIOD   1
     6 TOTAL ITERATIONS
 
 SOLVING FOR HEAD 
 FLOW MODEL IS TRANSIENT
 FLOW MODEL CONTAINS CONSTANT-HEAD CELLS


 MAXIMUM STEPSIZE DURING WHICH ANY PARTICLE CANNOT MOVE MORE THAN ONE CELL
 =  5.064    (WHEN MIN. R.F.=1)  AT K=   4, I=   1, J=  74

 MAXIMUM STEPSIZE WHICH MEETS STABILITY CRITERION OF THE ADVECTION TERM
 (FOR PURE FINITE-DIFFERENCE OPTION, MIXELM=0) 
 =  3.609    (WHEN MIN. R.F.=1)  AT K=   2, I=   1, J=  80


 TOTAL NUMBER OF POINT SOURCES/SINKS PRESENT IN THE FLOW MODEL =    62

 MAXIMUM STEPSIZE WHICH MEETS STABILITY CRITERION OF THE SINK & SOURCE TERM
 =  416.1    (WHEN MIN. R.F.=1)  AT K=   2, I=   1, J= 120

 MAXIMUM STEPSIZE WHICH MEETS STABILITY CRITERION OF THE DISPERSION TERM
 =  20.29    (WHEN MIN. R.F.=1)  AT K=   1, I=   1, J=  31
     1 CALLS TO GCG PACKAGE FOR TRANSPORT TIME STEP   3 IN FLOW TIME STEP 472 STRESS PERIOD   1
     6 TOTAL ITERATIONS
 
 SOLVING FOR HEAD 
 FLOW MODEL IS TRANSIENT
 FLOW MODEL CONTAINS CONSTANT-HEAD CELLS


 MAXIMUM STEPSIZE DURING WHICH ANY PARTICLE CANNOT MOVE MORE THAN ONE CELL
 =  5.132    (WHEN MIN. R.F.=1)  AT K=   5, I=   1, J=  74

 MAXIMUM STEPSIZE WHICH MEETS STABILITY CRITERION OF THE ADVECTION TERM
 (FOR PURE FINITE-DIFFERENCE OPTION, MIXELM=0) 
 =  3.845    (WHEN MIN. R.F.=1)  AT K=   2, I=   1, J=  80


 TOTAL NUMBER OF POINT SOURCES/SINKS PRESENT IN THE FLOW MODEL =    62

 MAXIMUM STEPSIZE WHICH MEETS STABILITY CRITERION OF THE SINK & SOURCE TERM
 =  422.9    (WHEN MIN. R.F.=1)  AT K=   2, I=   1, J= 120

 MAXIMUM STEPSIZE WHICH MEETS STABILITY CRITERION OF THE DISPERSION TERM
 =  20.29    (WHEN MIN. R.F.=1)  AT K=   1, I=   1, J=  31
     1 CALLS TO GCG PACKAGE FOR TRANSPORT TIME STEP   4 IN FLOW TIME STEP 472 STRESS PERIOD   1
     5 TOTAL ITERATIONS
  MAXIMUM CONCENTRATION CHANGES FOR EACH ITERATION:
  MAX. CHANGE LAYER,ROW,COL MAX. CHANGE LAYER,ROW,COL MAX. CHANGE LAYER,ROW,COL MAX. CHANGE LAYER,ROW,COL MAX. CHANGE LAYER,ROW,COL
 ------------------------------------------------------------------------------------------------------------------------------------
   0.2042E-01 (  2,  1, 81)  0.5315E-03 (  2,  1, 79)  0.2268E-04 (  3,  1, 79)  0.7013E-06 (  4,  1, 79)  0.2209E-07 (  4,  1, 78)


                                          ================================================
                                                         FROM TIME =   4720.0     TO    4730.0    

 
 SOLVING FOR HEAD 
 FLOW MODEL IS TRANSIENT
 FLOW MODEL CONTAINS CONSTANT-HEAD CELLS


 MAXIMUM STEPSIZE DURING WHICH ANY PARTICLE CANNOT MOVE MORE THAN ONE CELL
 =  5.173    (WHEN MIN. R.F.=1)  AT K=   5, I=   1, J=  74

 MAXIMUM STEPSIZE WHICH MEETS STABILITY CRITERION OF THE ADVECTION TERM
 (FOR PURE FINITE-DIFFERENCE OPTION, MIXELM=0) 
 =  3.895    (WHEN MIN. R.F.=1)  AT K=   2, I=   1, J=  79


 TOTAL NUMBER OF POINT SOURCES/SINKS PRESENT IN THE FLOW MODEL =    62

 MAXIMUM STEPSIZE WHICH MEETS STABILITY CRITERION OF THE SINK & SOURCE TERM
 =  454.7    (WHEN MIN. R.F.=1)  AT K=   2, I=   1, J= 120

 MAXIMUM STEPSIZE WHICH MEETS STABILITY CRITERION OF THE DISPERSION TERM
 =  20.29    (WHEN MIN. R.F.=1)  AT K=   1, I=   1, J=  31


     1 CALLS TO GCG PACKAGE FOR TRANSPORT TIME STEP   1 IN FLOW TIME STEP 473 STRESS PERIOD   1
     6 TOTAL ITERATIONS

 NO OUTPUT CONTROL FOR STRESS PERIOD    1   TIME STEP 473
 
 SOLVING FOR HEAD 
 FLOW MODEL IS TRANSIENT
 FLOW MODEL CONTAINS CONSTANT-HEAD CELLS


 MAXIMUM STEPSIZE DURING WHICH ANY PARTICLE CANNOT MOVE MORE THAN ONE CELL
 =  5.266    (WHEN MIN. R.F.=1)  AT K=   4, I=   1, J=  47

 MAXIMUM STEPSIZE WHICH MEETS STABILITY CRITERION OF THE ADVECTION TERM
 (FOR PURE FINITE-DIFFERENCE OPTION, MIXELM=0) 
 =  3.638    (WHEN MIN. R.F.=1)  AT K=   2, I=   1, J=  79


 TOTAL NUMBER OF POINT SOURCES/SINKS PRESENT IN THE FLOW MODEL =    62

 MAXIMUM STEPSIZE WHICH MEETS STABILITY CRITERION OF THE SINK & SOURCE TERM
 =  429.1    (WHEN MIN. R.F.=1)  AT K=   2, I=   1, J= 120

 MAXIMUM STEPSIZE WHICH MEETS STABILITY CRITERION OF THE DISPERSION TERM
 =  20.29    (WHEN MIN. R.F.=1)  AT K=   1, I=   1, J=  31
     1 CALLS TO GCG PACKAGE FOR TRANSPORT TIME STEP   2 IN FLOW TIME STEP 473 STRESS PERIOD   1
     6 TOTAL ITERATIONS
 
 SOLVING FOR HEAD 
 FLOW MODEL IS TRANSIENT
 FLOW MODEL CONTAINS CONSTANT-HEAD CELLS


 MAXIMUM STEPSIZE DURING WHICH ANY PARTICLE CANNOT MOVE MORE THAN ONE CELL
 =  5.281    (WHEN MIN. R.F.=1)  AT K=   4, I=   1, J=  47

 MAXIMUM STEPSIZE WHICH MEETS STABILITY CRITERION OF THE ADVECTION TERM
 (FOR PURE FINITE-DIFFERENCE OPTION, MIXELM=0) 
 =  3.542    (WHEN MIN. R.F.=1)  AT K=   2, I=   1, J=  79


 TOTAL NUMBER OF POINT SOURCES/SINKS PRESENT IN THE FLOW MODEL =    62

 MAXIMUM STEPSIZE WHICH MEETS STABILITY CRITERION OF THE SINK & SOURCE TERM
 =  448.8    (WHEN MIN. R.F.=1)  AT K=   2, I=   1, J= 120

 MAXIMUM STEPSIZE WHICH MEETS STABILITY CRITERION OF THE DISPERSION TERM
 =  20.29    (WHEN MIN. R.F.=1)  AT K=   1, I=   1, J=  31
     1 CALLS TO GCG PACKAGE FOR TRANSPORT TIME STEP   3 IN FLOW TIME STEP 473 STRESS PERIOD   1
     5 TOTAL ITERATIONS



 >>>>>>>>>>>>>>>>>>>>>>>>>>>>>>>>>>>>>>>>>>>>>>>>>>>>>>>FOR COMPONENT NO. 01<<<<<<<<<<<<<<<<<<<<<<<<<<<<<<<<<<<<<<<<<<<<<<<<<<<<<<<


                                            -------------------------------------------
                                                      TRANSPORT STEP NO.    3
                                            -------------------------------------------

 TOTAL ELAPSED TIME SINCE BEGINNING OF SIMULATION =   4727.600    D   
 .....................................................................

                     CUMULATIVE MASS BUDGETS AT END OF TRANSPORT STEP    3, TIME STEP  473, STRESS PERIOD    1
                     ------------------------------------------------------------------------------------------

                                                             IN                           OUT
                                                      ----------------             ----------------
                               CONSTANT CONCENTRATION:    2848158.                   -1928683.    
                                        CONSTANT HEAD:    0.000000                   -641.4149    
                               MASS STOR (FLOW MODEL):    319.3148                   -518.9812    
                                MASS STORAGE (SOLUTE):    4865488.                   -5784122.    
                            ---------------------------------------------------------------------------
                                              [TOTAL]:    7713965.     KG            -7713965.     KG  

                                                          NET (IN - OUT):  -0.1154955E-01
                                                   DISCREPANCY (PERCENT):  -0.1497227E-06
 
 SOLVING FOR HEAD 
 FLOW MODEL IS TRANSIENT
 FLOW MODEL CONTAINS CONSTANT-HEAD CELLS


 MAXIMUM STEPSIZE DURING WHICH ANY PARTICLE CANNOT MOVE MORE THAN ONE CELL
 =  5.337    (WHEN MIN. R.F.=1)  AT K=   4, I=   1, J=  47

 MAXIMUM STEPSIZE WHICH MEETS STABILITY CRITERION OF THE ADVECTION TERM
 (FOR PURE FINITE-DIFFERENCE OPTION, MIXELM=0) 
 =  3.564    (WHEN MIN. R.F.=1)  AT K=   2, I=   1, J=  79


 TOTAL NUMBER OF POINT SOURCES/SINKS PRESENT IN THE FLOW MODEL =    62

 MAXIMUM STEPSIZE WHICH MEETS STABILITY CRITERION OF THE SINK & SOURCE TERM
 =  497.2    (WHEN MIN. R.F.=1)  AT K=   2, I=   1, J= 120

 MAXIMUM STEPSIZE WHICH MEETS STABILITY CRITERION OF THE DISPERSION TERM
 =  20.29    (WHEN MIN. R.F.=1)  AT K=   1, I=   1, J=  31
     1 CALLS TO GCG PACKAGE FOR TRANSPORT TIME STEP   4 IN FLOW TIME STEP 473 STRESS PERIOD   1
     6 TOTAL ITERATIONS
  MAXIMUM CONCENTRATION CHANGES FOR EACH ITERATION:
  MAX. CHANGE LAYER,ROW,COL MAX. CHANGE LAYER,ROW,COL MAX. CHANGE LAYER,ROW,COL MAX. CHANGE LAYER,ROW,COL MAX. CHANGE LAYER,ROW,COL
 ------------------------------------------------------------------------------------------------------------------------------------
   0.3030E-01 (  2,  1, 80)  0.9519E-03 (  2,  1, 80)  0.4983E-04 (  3,  1, 78)  0.3996E-05 (  3,  1, 76)  0.1569E-06 (  4,  1, 76)
   0.7403E-08 (  3,  1, 81)


                                          ================================================
                                                         FROM TIME =   4730.0     TO    4740.0    

 
 SOLVING FOR HEAD 
 FLOW MODEL IS TRANSIENT
 FLOW MODEL CONTAINS CONSTANT-HEAD CELLS


 MAXIMUM STEPSIZE DURING WHICH ANY PARTICLE CANNOT MOVE MORE THAN ONE CELL
 =  5.402    (WHEN MIN. R.F.=1)  AT K=   5, I=   1, J=  47

 MAXIMUM STEPSIZE WHICH MEETS STABILITY CRITERION OF THE ADVECTION TERM
 (FOR PURE FINITE-DIFFERENCE OPTION, MIXELM=0) 
 =  3.670    (WHEN MIN. R.F.=1)  AT K=   2, I=   1, J=  79


 TOTAL NUMBER OF POINT SOURCES/SINKS PRESENT IN THE FLOW MODEL =    62

 MAXIMUM STEPSIZE WHICH MEETS STABILITY CRITERION OF THE SINK & SOURCE TERM
 =  524.1    (WHEN MIN. R.F.=1)  AT K=   2, I=   1, J= 120

 MAXIMUM STEPSIZE WHICH MEETS STABILITY CRITERION OF THE DISPERSION TERM
 =  20.29    (WHEN MIN. R.F.=1)  AT K=   1, I=   1, J=  31


     1 CALLS TO GCG PACKAGE FOR TRANSPORT TIME STEP   1 IN FLOW TIME STEP 474 STRESS PERIOD   1
     6 TOTAL ITERATIONS

 NO OUTPUT CONTROL FOR STRESS PERIOD    1   TIME STEP 474
 
 SOLVING FOR HEAD 
 FLOW MODEL IS TRANSIENT
 FLOW MODEL CONTAINS CONSTANT-HEAD CELLS


 MAXIMUM STEPSIZE DURING WHICH ANY PARTICLE CANNOT MOVE MORE THAN ONE CELL
 =  5.481    (WHEN MIN. R.F.=1)  AT K=   5, I=   1, J=  47

 MAXIMUM STEPSIZE WHICH MEETS STABILITY CRITERION OF THE ADVECTION TERM
 (FOR PURE FINITE-DIFFERENCE OPTION, MIXELM=0) 
 =  3.853    (WHEN MIN. R.F.=1)  AT K=   2, I=   1, J=  41


 TOTAL NUMBER OF POINT SOURCES/SINKS PRESENT IN THE FLOW MODEL =    62

 MAXIMUM STEPSIZE WHICH MEETS STABILITY CRITERION OF THE SINK & SOURCE TERM
 =  530.9    (WHEN MIN. R.F.=1)  AT K=   2, I=   1, J= 120

 MAXIMUM STEPSIZE WHICH MEETS STABILITY CRITERION OF THE DISPERSION TERM
 =  20.29    (WHEN MIN. R.F.=1)  AT K=   1, I=   1, J=  31
     1 CALLS TO GCG PACKAGE FOR TRANSPORT TIME STEP   2 IN FLOW TIME STEP 474 STRESS PERIOD   1
     6 TOTAL ITERATIONS
 
 SOLVING FOR HEAD 
 FLOW MODEL IS TRANSIENT
 FLOW MODEL CONTAINS CONSTANT-HEAD CELLS


 MAXIMUM STEPSIZE DURING WHICH ANY PARTICLE CANNOT MOVE MORE THAN ONE CELL
 =  5.607    (WHEN MIN. R.F.=1)  AT K=   5, I=   1, J=  47

 MAXIMUM STEPSIZE WHICH MEETS STABILITY CRITERION OF THE ADVECTION TERM
 (FOR PURE FINITE-DIFFERENCE OPTION, MIXELM=0) 
 =  3.860    (WHEN MIN. R.F.=1)  AT K=   2, I=   1, J=  78


 TOTAL NUMBER OF POINT SOURCES/SINKS PRESENT IN THE FLOW MODEL =    62

 MAXIMUM STEPSIZE WHICH MEETS STABILITY CRITERION OF THE SINK & SOURCE TERM
 =  539.9    (WHEN MIN. R.F.=1)  AT K=   2, I=   1, J= 120

 MAXIMUM STEPSIZE WHICH MEETS STABILITY CRITERION OF THE DISPERSION TERM
 =  20.29    (WHEN MIN. R.F.=1)  AT K=   1, I=   1, J=  31
     1 CALLS TO GCG PACKAGE FOR TRANSPORT TIME STEP   3 IN FLOW TIME STEP 474 STRESS PERIOD   1
     6 TOTAL ITERATIONS
 
 SOLVING FOR HEAD 
 FLOW MODEL IS TRANSIENT
 FLOW MODEL CONTAINS CONSTANT-HEAD CELLS


 MAXIMUM STEPSIZE DURING WHICH ANY PARTICLE CANNOT MOVE MORE THAN ONE CELL
 =  5.748    (WHEN MIN. R.F.=1)  AT K=   6, I=   1, J=  47

 MAXIMUM STEPSIZE WHICH MEETS STABILITY CRITERION OF THE ADVECTION TERM
 (FOR PURE FINITE-DIFFERENCE OPTION, MIXELM=0) 
 =  3.681    (WHEN MIN. R.F.=1)  AT K=   2, I=   1, J=  78


 TOTAL NUMBER OF POINT SOURCES/SINKS PRESENT IN THE FLOW MODEL =    62

 MAXIMUM STEPSIZE WHICH MEETS STABILITY CRITERION OF THE SINK & SOURCE TERM
 =  557.7    (WHEN MIN. R.F.=1)  AT K=   2, I=   1, J= 120

 MAXIMUM STEPSIZE WHICH MEETS STABILITY CRITERION OF THE DISPERSION TERM
 =  20.29    (WHEN MIN. R.F.=1)  AT K=   1, I=   1, J=  31
     1 CALLS TO GCG PACKAGE FOR TRANSPORT TIME STEP   4 IN FLOW TIME STEP 474 STRESS PERIOD   1
     5 TOTAL ITERATIONS
  MAXIMUM CONCENTRATION CHANGES FOR EACH ITERATION:
  MAX. CHANGE LAYER,ROW,COL MAX. CHANGE LAYER,ROW,COL MAX. CHANGE LAYER,ROW,COL MAX. CHANGE LAYER,ROW,COL MAX. CHANGE LAYER,ROW,COL
 ------------------------------------------------------------------------------------------------------------------------------------
   0.1793E-01 (  2,  1, 40)  0.5005E-03 (  2,  1, 78)  0.1716E-04 (  2,  1, 45)  0.1036E-05 (  3,  1, 45)  0.3315E-07 (  4,  1, 45)


                                          ================================================
                                                         FROM TIME =   4740.0     TO    4750.0    

 
 SOLVING FOR HEAD 
 FLOW MODEL IS TRANSIENT
 FLOW MODEL CONTAINS CONSTANT-HEAD CELLS


 MAXIMUM STEPSIZE DURING WHICH ANY PARTICLE CANNOT MOVE MORE THAN ONE CELL
 =  5.813    (WHEN MIN. R.F.=1)  AT K=   6, I=   1, J=  47

 MAXIMUM STEPSIZE WHICH MEETS STABILITY CRITERION OF THE ADVECTION TERM
 (FOR PURE FINITE-DIFFERENCE OPTION, MIXELM=0) 
 =  3.658    (WHEN MIN. R.F.=1)  AT K=   2, I=   1, J=  78


 TOTAL NUMBER OF POINT SOURCES/SINKS PRESENT IN THE FLOW MODEL =    62

 MAXIMUM STEPSIZE WHICH MEETS STABILITY CRITERION OF THE SINK & SOURCE TERM
 =  655.8    (WHEN MIN. R.F.=1)  AT K=   2, I=   1, J= 120

 MAXIMUM STEPSIZE WHICH MEETS STABILITY CRITERION OF THE DISPERSION TERM
 =  20.29    (WHEN MIN. R.F.=1)  AT K=   1, I=   1, J=  31


     1 CALLS TO GCG PACKAGE FOR TRANSPORT TIME STEP   1 IN FLOW TIME STEP 475 STRESS PERIOD   1
     6 TOTAL ITERATIONS

 NO OUTPUT CONTROL FOR STRESS PERIOD    1   TIME STEP 475
 
 SOLVING FOR HEAD 
 FLOW MODEL IS TRANSIENT
 FLOW MODEL CONTAINS CONSTANT-HEAD CELLS


 MAXIMUM STEPSIZE DURING WHICH ANY PARTICLE CANNOT MOVE MORE THAN ONE CELL
 =  5.949    (WHEN MIN. R.F.=1)  AT K=   6, I=   1, J=  47

 MAXIMUM STEPSIZE WHICH MEETS STABILITY CRITERION OF THE ADVECTION TERM
 (FOR PURE FINITE-DIFFERENCE OPTION, MIXELM=0) 
 =  3.697    (WHEN MIN. R.F.=1)  AT K=   2, I=   1, J=  78


 TOTAL NUMBER OF POINT SOURCES/SINKS PRESENT IN THE FLOW MODEL =    62

 MAXIMUM STEPSIZE WHICH MEETS STABILITY CRITERION OF THE SINK & SOURCE TERM
 =  684.2    (WHEN MIN. R.F.=1)  AT K=   2, I=   1, J= 120

 MAXIMUM STEPSIZE WHICH MEETS STABILITY CRITERION OF THE DISPERSION TERM
 =  20.29    (WHEN MIN. R.F.=1)  AT K=   1, I=   1, J=  31
     1 CALLS TO GCG PACKAGE FOR TRANSPORT TIME STEP   2 IN FLOW TIME STEP 475 STRESS PERIOD   1
     6 TOTAL ITERATIONS
 
 SOLVING FOR HEAD 
 FLOW MODEL IS TRANSIENT
 FLOW MODEL CONTAINS CONSTANT-HEAD CELLS


 MAXIMUM STEPSIZE DURING WHICH ANY PARTICLE CANNOT MOVE MORE THAN ONE CELL
 =  6.065    (WHEN MIN. R.F.=1)  AT K=   7, I=   1, J=  47

 MAXIMUM STEPSIZE WHICH MEETS STABILITY CRITERION OF THE ADVECTION TERM
 (FOR PURE FINITE-DIFFERENCE OPTION, MIXELM=0) 
 =  3.796    (WHEN MIN. R.F.=1)  AT K=   2, I=   1, J=  42


 TOTAL NUMBER OF POINT SOURCES/SINKS PRESENT IN THE FLOW MODEL =    62

 MAXIMUM STEPSIZE WHICH MEETS STABILITY CRITERION OF THE SINK & SOURCE TERM
 =  748.8    (WHEN MIN. R.F.=1)  AT K=   2, I=   1, J= 120

 MAXIMUM STEPSIZE WHICH MEETS STABILITY CRITERION OF THE DISPERSION TERM
 =  20.29    (WHEN MIN. R.F.=1)  AT K=   1, I=   1, J=  31
     1 CALLS TO GCG PACKAGE FOR TRANSPORT TIME STEP   3 IN FLOW TIME STEP 475 STRESS PERIOD   1
     6 TOTAL ITERATIONS
 
 SOLVING FOR HEAD 
 FLOW MODEL IS TRANSIENT
 FLOW MODEL CONTAINS CONSTANT-HEAD CELLS


 MAXIMUM STEPSIZE DURING WHICH ANY PARTICLE CANNOT MOVE MORE THAN ONE CELL
 =  6.070    (WHEN MIN. R.F.=1)  AT K=   4, I=   1, J=  60

 MAXIMUM STEPSIZE WHICH MEETS STABILITY CRITERION OF THE ADVECTION TERM
 (FOR PURE FINITE-DIFFERENCE OPTION, MIXELM=0) 
 =  4.045    (WHEN MIN. R.F.=1)  AT K=   2, I=   1, J=  42


 TOTAL NUMBER OF POINT SOURCES/SINKS PRESENT IN THE FLOW MODEL =    62

 MAXIMUM STEPSIZE WHICH MEETS STABILITY CRITERION OF THE SINK & SOURCE TERM
 =  769.1    (WHEN MIN. R.F.=1)  AT K=   2, I=   1, J= 120

 MAXIMUM STEPSIZE WHICH MEETS STABILITY CRITERION OF THE DISPERSION TERM
 =  20.29    (WHEN MIN. R.F.=1)  AT K=   1, I=   1, J=  31
     1 CALLS TO GCG PACKAGE FOR TRANSPORT TIME STEP   4 IN FLOW TIME STEP 475 STRESS PERIOD   1
     5 TOTAL ITERATIONS
  MAXIMUM CONCENTRATION CHANGES FOR EACH ITERATION:
  MAX. CHANGE LAYER,ROW,COL MAX. CHANGE LAYER,ROW,COL MAX. CHANGE LAYER,ROW,COL MAX. CHANGE LAYER,ROW,COL MAX. CHANGE LAYER,ROW,COL
 ------------------------------------------------------------------------------------------------------------------------------------
   0.2044E-01 (  2,  1, 79)  0.6517E-03 (  2,  1, 77)  0.2122E-04 (  3,  1, 77)  0.6539E-06 (  3,  1, 45)  0.2429E-07 (  5,  1, 80)


                                          ================================================
                                                         FROM TIME =   4750.0     TO    4760.0    

 
 SOLVING FOR HEAD 
 FLOW MODEL IS TRANSIENT
 FLOW MODEL CONTAINS CONSTANT-HEAD CELLS


 MAXIMUM STEPSIZE DURING WHICH ANY PARTICLE CANNOT MOVE MORE THAN ONE CELL
 =  6.072    (WHEN MIN. R.F.=1)  AT K=   4, I=   1, J=  60

 MAXIMUM STEPSIZE WHICH MEETS STABILITY CRITERION OF THE ADVECTION TERM
 (FOR PURE FINITE-DIFFERENCE OPTION, MIXELM=0) 
 =  4.078    (WHEN MIN. R.F.=1)  AT K=   2, I=   1, J=  43


 TOTAL NUMBER OF POINT SOURCES/SINKS PRESENT IN THE FLOW MODEL =    62

 MAXIMUM STEPSIZE WHICH MEETS STABILITY CRITERION OF THE SINK & SOURCE TERM
 =  853.6    (WHEN MIN. R.F.=1)  AT K=   2, I=   1, J= 120

 MAXIMUM STEPSIZE WHICH MEETS STABILITY CRITERION OF THE DISPERSION TERM
 =  20.29    (WHEN MIN. R.F.=1)  AT K=   1, I=   1, J=  31


     1 CALLS TO GCG PACKAGE FOR TRANSPORT TIME STEP   1 IN FLOW TIME STEP 476 STRESS PERIOD   1
     6 TOTAL ITERATIONS

 NO OUTPUT CONTROL FOR STRESS PERIOD    1   TIME STEP 476
 
 SOLVING FOR HEAD 
 FLOW MODEL IS TRANSIENT
 FLOW MODEL CONTAINS CONSTANT-HEAD CELLS


 MAXIMUM STEPSIZE DURING WHICH ANY PARTICLE CANNOT MOVE MORE THAN ONE CELL
 =  6.068    (WHEN MIN. R.F.=1)  AT K=   4, I=   1, J=  60

 MAXIMUM STEPSIZE WHICH MEETS STABILITY CRITERION OF THE ADVECTION TERM
 (FOR PURE FINITE-DIFFERENCE OPTION, MIXELM=0) 
 =  3.835    (WHEN MIN. R.F.=1)  AT K=   2, I=   1, J=  43


 TOTAL NUMBER OF POINT SOURCES/SINKS PRESENT IN THE FLOW MODEL =    62

 MAXIMUM STEPSIZE WHICH MEETS STABILITY CRITERION OF THE SINK & SOURCE TERM
 =  824.5    (WHEN MIN. R.F.=1)  AT K=   2, I=   1, J= 120

 MAXIMUM STEPSIZE WHICH MEETS STABILITY CRITERION OF THE DISPERSION TERM
 =  20.29    (WHEN MIN. R.F.=1)  AT K=   1, I=   1, J=  31
     1 CALLS TO GCG PACKAGE FOR TRANSPORT TIME STEP   2 IN FLOW TIME STEP 476 STRESS PERIOD   1
     6 TOTAL ITERATIONS
 
 SOLVING FOR HEAD 
 FLOW MODEL IS TRANSIENT
 FLOW MODEL CONTAINS CONSTANT-HEAD CELLS


 MAXIMUM STEPSIZE DURING WHICH ANY PARTICLE CANNOT MOVE MORE THAN ONE CELL
 =  6.062    (WHEN MIN. R.F.=1)  AT K=   4, I=   1, J=  60

 MAXIMUM STEPSIZE WHICH MEETS STABILITY CRITERION OF THE ADVECTION TERM
 (FOR PURE FINITE-DIFFERENCE OPTION, MIXELM=0) 
 =  3.768    (WHEN MIN. R.F.=1)  AT K=   2, I=   1, J=  43


 TOTAL NUMBER OF POINT SOURCES/SINKS PRESENT IN THE FLOW MODEL =    62

 MAXIMUM STEPSIZE WHICH MEETS STABILITY CRITERION OF THE SINK & SOURCE TERM
 =  1059.    (WHEN MIN. R.F.=1)  AT K=   2, I=   1, J= 120

 MAXIMUM STEPSIZE WHICH MEETS STABILITY CRITERION OF THE DISPERSION TERM
 =  20.29    (WHEN MIN. R.F.=1)  AT K=   1, I=   1, J=  31
     1 CALLS TO GCG PACKAGE FOR TRANSPORT TIME STEP   3 IN FLOW TIME STEP 476 STRESS PERIOD   1
     6 TOTAL ITERATIONS
 
 SOLVING FOR HEAD 
 FLOW MODEL IS TRANSIENT
 FLOW MODEL CONTAINS CONSTANT-HEAD CELLS


 MAXIMUM STEPSIZE DURING WHICH ANY PARTICLE CANNOT MOVE MORE THAN ONE CELL
 =  6.058    (WHEN MIN. R.F.=1)  AT K=   4, I=   1, J=  60

 MAXIMUM STEPSIZE WHICH MEETS STABILITY CRITERION OF THE ADVECTION TERM
 (FOR PURE FINITE-DIFFERENCE OPTION, MIXELM=0) 
 =  3.831    (WHEN MIN. R.F.=1)  AT K=   2, I=   1, J=  43


 TOTAL NUMBER OF POINT SOURCES/SINKS PRESENT IN THE FLOW MODEL =    62

 MAXIMUM STEPSIZE WHICH MEETS STABILITY CRITERION OF THE SINK & SOURCE TERM
 =  1193.    (WHEN MIN. R.F.=1)  AT K=   2, I=   1, J= 120

 MAXIMUM STEPSIZE WHICH MEETS STABILITY CRITERION OF THE DISPERSION TERM
 =  20.29    (WHEN MIN. R.F.=1)  AT K=   1, I=   1, J=  31
     1 CALLS TO GCG PACKAGE FOR TRANSPORT TIME STEP   4 IN FLOW TIME STEP 476 STRESS PERIOD   1
     5 TOTAL ITERATIONS
  MAXIMUM CONCENTRATION CHANGES FOR EACH ITERATION:
  MAX. CHANGE LAYER,ROW,COL MAX. CHANGE LAYER,ROW,COL MAX. CHANGE LAYER,ROW,COL MAX. CHANGE LAYER,ROW,COL MAX. CHANGE LAYER,ROW,COL
 ------------------------------------------------------------------------------------------------------------------------------------
   0.1275E-01 (  2,  1, 78)  0.2089E-03 (  2,  1, 78)  0.4670E-05 (  2,  1, 79)  0.1158E-06 (  3,  1, 79)  0.2138E-08 (  4,  1, 78)


                                          ================================================
                                                         FROM TIME =   4760.0     TO    4770.0    

 
 SOLVING FOR HEAD 
 FLOW MODEL IS TRANSIENT
 FLOW MODEL CONTAINS CONSTANT-HEAD CELLS


 MAXIMUM STEPSIZE DURING WHICH ANY PARTICLE CANNOT MOVE MORE THAN ONE CELL
 =  6.060    (WHEN MIN. R.F.=1)  AT K=   4, I=   1, J=  60

 MAXIMUM STEPSIZE WHICH MEETS STABILITY CRITERION OF THE ADVECTION TERM
 (FOR PURE FINITE-DIFFERENCE OPTION, MIXELM=0) 
 =  3.886    (WHEN MIN. R.F.=1)  AT K=   2, I=   1, J=  43


 TOTAL NUMBER OF POINT SOURCES/SINKS PRESENT IN THE FLOW MODEL =    62

 MAXIMUM STEPSIZE WHICH MEETS STABILITY CRITERION OF THE SINK & SOURCE TERM
 =  1669.    (WHEN MIN. R.F.=1)  AT K=   2, I=   1, J= 120

 MAXIMUM STEPSIZE WHICH MEETS STABILITY CRITERION OF THE DISPERSION TERM
 =  20.29    (WHEN MIN. R.F.=1)  AT K=   1, I=   1, J=  31


     1 CALLS TO GCG PACKAGE FOR TRANSPORT TIME STEP   1 IN FLOW TIME STEP 477 STRESS PERIOD   1
     6 TOTAL ITERATIONS

 NO OUTPUT CONTROL FOR STRESS PERIOD    1   TIME STEP 477
 
 SOLVING FOR HEAD 
 FLOW MODEL IS TRANSIENT
 FLOW MODEL CONTAINS CONSTANT-HEAD CELLS


 MAXIMUM STEPSIZE DURING WHICH ANY PARTICLE CANNOT MOVE MORE THAN ONE CELL
 =  6.056    (WHEN MIN. R.F.=1)  AT K=   4, I=   1, J=  60

 MAXIMUM STEPSIZE WHICH MEETS STABILITY CRITERION OF THE ADVECTION TERM
 (FOR PURE FINITE-DIFFERENCE OPTION, MIXELM=0) 
 =  4.149    (WHEN MIN. R.F.=1)  AT K=   2, I=   1, J=  43


 TOTAL NUMBER OF POINT SOURCES/SINKS PRESENT IN THE FLOW MODEL =    62

 MAXIMUM STEPSIZE WHICH MEETS STABILITY CRITERION OF THE SINK & SOURCE TERM
 =  1345.    (WHEN MIN. R.F.=1)  AT K=   2, I=   1, J= 120

 MAXIMUM STEPSIZE WHICH MEETS STABILITY CRITERION OF THE DISPERSION TERM
 =  20.29    (WHEN MIN. R.F.=1)  AT K=   1, I=   1, J=  31
     1 CALLS TO GCG PACKAGE FOR TRANSPORT TIME STEP   2 IN FLOW TIME STEP 477 STRESS PERIOD   1
     6 TOTAL ITERATIONS
 
 SOLVING FOR HEAD 
 FLOW MODEL IS TRANSIENT
 FLOW MODEL CONTAINS CONSTANT-HEAD CELLS


 MAXIMUM STEPSIZE DURING WHICH ANY PARTICLE CANNOT MOVE MORE THAN ONE CELL
 =  6.051    (WHEN MIN. R.F.=1)  AT K=   4, I=   1, J=  60

 MAXIMUM STEPSIZE WHICH MEETS STABILITY CRITERION OF THE ADVECTION TERM
 (FOR PURE FINITE-DIFFERENCE OPTION, MIXELM=0) 
 =  4.150    (WHEN MIN. R.F.=1)  AT K=   2, I=   1, J=  44


 TOTAL NUMBER OF POINT SOURCES/SINKS PRESENT IN THE FLOW MODEL =    62

 MAXIMUM STEPSIZE WHICH MEETS STABILITY CRITERION OF THE SINK & SOURCE TERM
 =  1328.    (WHEN MIN. R.F.=1)  AT K=   2, I=   1, J= 120

 MAXIMUM STEPSIZE WHICH MEETS STABILITY CRITERION OF THE DISPERSION TERM
 =  20.29    (WHEN MIN. R.F.=1)  AT K=   1, I=   1, J=  31
     1 CALLS TO GCG PACKAGE FOR TRANSPORT TIME STEP   3 IN FLOW TIME STEP 477 STRESS PERIOD   1
     6 TOTAL ITERATIONS
 
 SOLVING FOR HEAD 
 FLOW MODEL IS TRANSIENT
 FLOW MODEL CONTAINS CONSTANT-HEAD CELLS


 MAXIMUM STEPSIZE DURING WHICH ANY PARTICLE CANNOT MOVE MORE THAN ONE CELL
 =  6.044    (WHEN MIN. R.F.=1)  AT K=   4, I=   1, J=  60

 MAXIMUM STEPSIZE WHICH MEETS STABILITY CRITERION OF THE ADVECTION TERM
 (FOR PURE FINITE-DIFFERENCE OPTION, MIXELM=0) 
 =  3.954    (WHEN MIN. R.F.=1)  AT K=   2, I=   1, J=  44


 TOTAL NUMBER OF POINT SOURCES/SINKS PRESENT IN THE FLOW MODEL =    62

 MAXIMUM STEPSIZE WHICH MEETS STABILITY CRITERION OF THE SINK & SOURCE TERM
 =  1383.    (WHEN MIN. R.F.=1)  AT K=   2, I=   1, J= 120

 MAXIMUM STEPSIZE WHICH MEETS STABILITY CRITERION OF THE DISPERSION TERM
 =  20.29    (WHEN MIN. R.F.=1)  AT K=   1, I=   1, J=  31
     1 CALLS TO GCG PACKAGE FOR TRANSPORT TIME STEP   4 IN FLOW TIME STEP 477 STRESS PERIOD   1
     5 TOTAL ITERATIONS
  MAXIMUM CONCENTRATION CHANGES FOR EACH ITERATION:
  MAX. CHANGE LAYER,ROW,COL MAX. CHANGE LAYER,ROW,COL MAX. CHANGE LAYER,ROW,COL MAX. CHANGE LAYER,ROW,COL MAX. CHANGE LAYER,ROW,COL
 ------------------------------------------------------------------------------------------------------------------------------------
   0.1172E-01 (  2,  1, 31)  0.2401E-03 (  2,  1, 76)  0.5116E-05 (  3,  1, 46)  0.1123E-06 (  3,  1, 75)  0.2800E-08 (  4,  1, 75)


                                          ================================================
                                                         FROM TIME =   4770.0     TO    4780.0    

 
 SOLVING FOR HEAD 
 FLOW MODEL IS TRANSIENT
 FLOW MODEL CONTAINS CONSTANT-HEAD CELLS


 MAXIMUM STEPSIZE DURING WHICH ANY PARTICLE CANNOT MOVE MORE THAN ONE CELL
 =  6.045    (WHEN MIN. R.F.=1)  AT K=   4, I=   1, J=  60

 MAXIMUM STEPSIZE WHICH MEETS STABILITY CRITERION OF THE ADVECTION TERM
 (FOR PURE FINITE-DIFFERENCE OPTION, MIXELM=0) 
 =  3.932    (WHEN MIN. R.F.=1)  AT K=   2, I=   1, J=  44


 TOTAL NUMBER OF POINT SOURCES/SINKS PRESENT IN THE FLOW MODEL =    62

 MAXIMUM STEPSIZE WHICH MEETS STABILITY CRITERION OF THE SINK & SOURCE TERM
 =  2952.    (WHEN MIN. R.F.=1)  AT K=   2, I=   1, J= 120

 MAXIMUM STEPSIZE WHICH MEETS STABILITY CRITERION OF THE DISPERSION TERM
 =  20.29    (WHEN MIN. R.F.=1)  AT K=   1, I=   1, J=  31


     1 CALLS TO GCG PACKAGE FOR TRANSPORT TIME STEP   1 IN FLOW TIME STEP 478 STRESS PERIOD   1
     6 TOTAL ITERATIONS

 NO OUTPUT CONTROL FOR STRESS PERIOD    1   TIME STEP 478
 
 SOLVING FOR HEAD 
 FLOW MODEL IS TRANSIENT
 FLOW MODEL CONTAINS CONSTANT-HEAD CELLS


 MAXIMUM STEPSIZE DURING WHICH ANY PARTICLE CANNOT MOVE MORE THAN ONE CELL
 =  6.038    (WHEN MIN. R.F.=1)  AT K=   4, I=   1, J=  60

 MAXIMUM STEPSIZE WHICH MEETS STABILITY CRITERION OF THE ADVECTION TERM
 (FOR PURE FINITE-DIFFERENCE OPTION, MIXELM=0) 
 =  3.948    (WHEN MIN. R.F.=1)  AT K=   2, I=   1, J=  44


 TOTAL NUMBER OF POINT SOURCES/SINKS PRESENT IN THE FLOW MODEL =    62

 MAXIMUM STEPSIZE WHICH MEETS STABILITY CRITERION OF THE SINK & SOURCE TERM
 =  2314.    (WHEN MIN. R.F.=1)  AT K=   2, I=   1, J= 120

 MAXIMUM STEPSIZE WHICH MEETS STABILITY CRITERION OF THE DISPERSION TERM
 =  20.29    (WHEN MIN. R.F.=1)  AT K=   1, I=   1, J=  31
     1 CALLS TO GCG PACKAGE FOR TRANSPORT TIME STEP   2 IN FLOW TIME STEP 478 STRESS PERIOD   1
     6 TOTAL ITERATIONS
 
 SOLVING FOR HEAD 
 FLOW MODEL IS TRANSIENT
 FLOW MODEL CONTAINS CONSTANT-HEAD CELLS


 MAXIMUM STEPSIZE DURING WHICH ANY PARTICLE CANNOT MOVE MORE THAN ONE CELL
 =  6.031    (WHEN MIN. R.F.=1)  AT K=   4, I=   1, J=  60

 MAXIMUM STEPSIZE WHICH MEETS STABILITY CRITERION OF THE ADVECTION TERM
 (FOR PURE FINITE-DIFFERENCE OPTION, MIXELM=0) 
 =  4.071    (WHEN MIN. R.F.=1)  AT K=   2, I=   1, J=  44


 TOTAL NUMBER OF POINT SOURCES/SINKS PRESENT IN THE FLOW MODEL =    62

 MAXIMUM STEPSIZE WHICH MEETS STABILITY CRITERION OF THE SINK & SOURCE TERM
 =  2638.    (WHEN MIN. R.F.=1)  AT K=   2, I=   1, J= 120

 MAXIMUM STEPSIZE WHICH MEETS STABILITY CRITERION OF THE DISPERSION TERM
 =  20.29    (WHEN MIN. R.F.=1)  AT K=   1, I=   1, J=  31
     1 CALLS TO GCG PACKAGE FOR TRANSPORT TIME STEP   3 IN FLOW TIME STEP 478 STRESS PERIOD   1
     6 TOTAL ITERATIONS
 
 SOLVING FOR HEAD 
 FLOW MODEL IS TRANSIENT
 FLOW MODEL CONTAINS CONSTANT-HEAD CELLS


 MAXIMUM STEPSIZE DURING WHICH ANY PARTICLE CANNOT MOVE MORE THAN ONE CELL
 =  6.024    (WHEN MIN. R.F.=1)  AT K=   4, I=   1, J=  60

 MAXIMUM STEPSIZE WHICH MEETS STABILITY CRITERION OF THE ADVECTION TERM
 (FOR PURE FINITE-DIFFERENCE OPTION, MIXELM=0) 
 =  4.363    (WHEN MIN. R.F.=1)  AT K=   2, I=   1, J=  44


 TOTAL NUMBER OF POINT SOURCES/SINKS PRESENT IN THE FLOW MODEL =    62

 MAXIMUM STEPSIZE WHICH MEETS STABILITY CRITERION OF THE SINK & SOURCE TERM
 =  2363.    (WHEN MIN. R.F.=1)  AT K=   2, I=   1, J= 120

 MAXIMUM STEPSIZE WHICH MEETS STABILITY CRITERION OF THE DISPERSION TERM
 =  20.29    (WHEN MIN. R.F.=1)  AT K=   1, I=   1, J=  31
     1 CALLS TO GCG PACKAGE FOR TRANSPORT TIME STEP   4 IN FLOW TIME STEP 478 STRESS PERIOD   1
     5 TOTAL ITERATIONS
  MAXIMUM CONCENTRATION CHANGES FOR EACH ITERATION:
  MAX. CHANGE LAYER,ROW,COL MAX. CHANGE LAYER,ROW,COL MAX. CHANGE LAYER,ROW,COL MAX. CHANGE LAYER,ROW,COL MAX. CHANGE LAYER,ROW,COL
 ------------------------------------------------------------------------------------------------------------------------------------
   0.1367E-01 (  2,  1, 77)  0.2177E-03 (  2,  1, 45)  0.5889E-05 (  2,  1, 78)  0.1716E-06 (  3,  1, 78)  0.3284E-08 (  4,  1, 46)


                                          ================================================
                                                         FROM TIME =   4780.0     TO    4790.0    

 
 SOLVING FOR HEAD 
 FLOW MODEL IS TRANSIENT
 FLOW MODEL CONTAINS CONSTANT-HEAD CELLS


 MAXIMUM STEPSIZE DURING WHICH ANY PARTICLE CANNOT MOVE MORE THAN ONE CELL
 =  6.025    (WHEN MIN. R.F.=1)  AT K=   4, I=   1, J=  60

 MAXIMUM STEPSIZE WHICH MEETS STABILITY CRITERION OF THE ADVECTION TERM
 (FOR PURE FINITE-DIFFERENCE OPTION, MIXELM=0) 
 =  4.520    (WHEN MIN. R.F.=1)  AT K=   2, I=   1, J=  44


 TOTAL NUMBER OF POINT SOURCES/SINKS PRESENT IN THE FLOW MODEL =    62

 MAXIMUM STEPSIZE WHICH MEETS STABILITY CRITERION OF THE SINK & SOURCE TERM
 =  2776.    (WHEN MIN. R.F.=1)  AT K=   2, I=   1, J= 120

 MAXIMUM STEPSIZE WHICH MEETS STABILITY CRITERION OF THE DISPERSION TERM
 =  20.29    (WHEN MIN. R.F.=1)  AT K=   1, I=   1, J=  31


     1 CALLS TO GCG PACKAGE FOR TRANSPORT TIME STEP   1 IN FLOW TIME STEP 479 STRESS PERIOD   1
     6 TOTAL ITERATIONS

 NO OUTPUT CONTROL FOR STRESS PERIOD    1   TIME STEP 479
 
 SOLVING FOR HEAD 
 FLOW MODEL IS TRANSIENT
 FLOW MODEL CONTAINS CONSTANT-HEAD CELLS


 MAXIMUM STEPSIZE DURING WHICH ANY PARTICLE CANNOT MOVE MORE THAN ONE CELL
 =  6.015    (WHEN MIN. R.F.=1)  AT K=   4, I=   1, J=  60

 MAXIMUM STEPSIZE WHICH MEETS STABILITY CRITERION OF THE ADVECTION TERM
 (FOR PURE FINITE-DIFFERENCE OPTION, MIXELM=0) 
 =  4.521    (WHEN MIN. R.F.=1)  AT K=   2, I=   1, J=  45


 TOTAL NUMBER OF POINT SOURCES/SINKS PRESENT IN THE FLOW MODEL =    62

 MAXIMUM STEPSIZE WHICH MEETS STABILITY CRITERION OF THE SINK & SOURCE TERM
 =  1751.    (WHEN MIN. R.F.=1)  AT K=   2, I=   1, J= 120

 MAXIMUM STEPSIZE WHICH MEETS STABILITY CRITERION OF THE DISPERSION TERM
 =  20.29    (WHEN MIN. R.F.=1)  AT K=   1, I=   1, J=  31
     1 CALLS TO GCG PACKAGE FOR TRANSPORT TIME STEP   2 IN FLOW TIME STEP 479 STRESS PERIOD   1
     6 TOTAL ITERATIONS
 
 SOLVING FOR HEAD 
 FLOW MODEL IS TRANSIENT
 FLOW MODEL CONTAINS CONSTANT-HEAD CELLS


 MAXIMUM STEPSIZE DURING WHICH ANY PARTICLE CANNOT MOVE MORE THAN ONE CELL
 =  6.004    (WHEN MIN. R.F.=1)  AT K=   4, I=   1, J=  60

 MAXIMUM STEPSIZE WHICH MEETS STABILITY CRITERION OF THE ADVECTION TERM
 (FOR PURE FINITE-DIFFERENCE OPTION, MIXELM=0) 
 =  4.316    (WHEN MIN. R.F.=1)  AT K=   2, I=   1, J=  45


 TOTAL NUMBER OF POINT SOURCES/SINKS PRESENT IN THE FLOW MODEL =    62

 MAXIMUM STEPSIZE WHICH MEETS STABILITY CRITERION OF THE SINK & SOURCE TERM
 =  2080.    (WHEN MIN. R.F.=1)  AT K=   2, I=   1, J= 120

 MAXIMUM STEPSIZE WHICH MEETS STABILITY CRITERION OF THE DISPERSION TERM
 =  20.29    (WHEN MIN. R.F.=1)  AT K=   1, I=   1, J=  31
     1 CALLS TO GCG PACKAGE FOR TRANSPORT TIME STEP   3 IN FLOW TIME STEP 479 STRESS PERIOD   1
     6 TOTAL ITERATIONS
  MAXIMUM CONCENTRATION CHANGES FOR EACH ITERATION:
  MAX. CHANGE LAYER,ROW,COL MAX. CHANGE LAYER,ROW,COL MAX. CHANGE LAYER,ROW,COL MAX. CHANGE LAYER,ROW,COL MAX. CHANGE LAYER,ROW,COL
 ------------------------------------------------------------------------------------------------------------------------------------
   0.4343E-01 (  2,  1, 83)  0.1953E-02 (  2,  1, 83)  0.1162E-03 (  2,  1, 77)  0.8302E-05 (  3,  1, 74)  0.5528E-06 (  4,  1, 74)
   0.3754E-07 (  5,  1, 76)


                                          ================================================
                                                         FROM TIME =   4790.0     TO    4800.0    

 
 SOLVING FOR HEAD 
 FLOW MODEL IS TRANSIENT
 FLOW MODEL CONTAINS CONSTANT-HEAD CELLS


 MAXIMUM STEPSIZE DURING WHICH ANY PARTICLE CANNOT MOVE MORE THAN ONE CELL
 =  5.997    (WHEN MIN. R.F.=1)  AT K=   4, I=   1, J=  60

 MAXIMUM STEPSIZE WHICH MEETS STABILITY CRITERION OF THE ADVECTION TERM
 (FOR PURE FINITE-DIFFERENCE OPTION, MIXELM=0) 
 =  4.307    (WHEN MIN. R.F.=1)  AT K=   2, I=   1, J=  45


 TOTAL NUMBER OF POINT SOURCES/SINKS PRESENT IN THE FLOW MODEL =    62

 MAXIMUM STEPSIZE WHICH MEETS STABILITY CRITERION OF THE SINK & SOURCE TERM
 =  2447.    (WHEN MIN. R.F.=1)  AT K=   2, I=   1, J= 120

 MAXIMUM STEPSIZE WHICH MEETS STABILITY CRITERION OF THE DISPERSION TERM
 =  20.29    (WHEN MIN. R.F.=1)  AT K=   1, I=   1, J=  31


     1 CALLS TO GCG PACKAGE FOR TRANSPORT TIME STEP   1 IN FLOW TIME STEP 480 STRESS PERIOD   1
     6 TOTAL ITERATIONS

 NO OUTPUT CONTROL FOR STRESS PERIOD    1   TIME STEP 480
 
 SOLVING FOR HEAD 
 FLOW MODEL IS TRANSIENT
 FLOW MODEL CONTAINS CONSTANT-HEAD CELLS


 MAXIMUM STEPSIZE DURING WHICH ANY PARTICLE CANNOT MOVE MORE THAN ONE CELL
 =  5.637    (WHEN MIN. R.F.=1)  AT K=   4, I=   1, J=  74

 MAXIMUM STEPSIZE WHICH MEETS STABILITY CRITERION OF THE ADVECTION TERM
 (FOR PURE FINITE-DIFFERENCE OPTION, MIXELM=0) 
 =  4.244    (WHEN MIN. R.F.=1)  AT K=   2, I=   1, J=  81


 TOTAL NUMBER OF POINT SOURCES/SINKS PRESENT IN THE FLOW MODEL =    62

 MAXIMUM STEPSIZE WHICH MEETS STABILITY CRITERION OF THE SINK & SOURCE TERM
 =  2277.    (WHEN MIN. R.F.=1)  AT K=   2, I=   1, J= 120

 MAXIMUM STEPSIZE WHICH MEETS STABILITY CRITERION OF THE DISPERSION TERM
 =  20.29    (WHEN MIN. R.F.=1)  AT K=   1, I=   1, J=  31
     1 CALLS TO GCG PACKAGE FOR TRANSPORT TIME STEP   2 IN FLOW TIME STEP 480 STRESS PERIOD   1
     6 TOTAL ITERATIONS
 
 SOLVING FOR HEAD 
 FLOW MODEL IS TRANSIENT
 FLOW MODEL CONTAINS CONSTANT-HEAD CELLS


 MAXIMUM STEPSIZE DURING WHICH ANY PARTICLE CANNOT MOVE MORE THAN ONE CELL
 =  5.344    (WHEN MIN. R.F.=1)  AT K=   4, I=   1, J=  74

 MAXIMUM STEPSIZE WHICH MEETS STABILITY CRITERION OF THE ADVECTION TERM
 (FOR PURE FINITE-DIFFERENCE OPTION, MIXELM=0) 
 =  3.953    (WHEN MIN. R.F.=1)  AT K=   2, I=   1, J=  81


 TOTAL NUMBER OF POINT SOURCES/SINKS PRESENT IN THE FLOW MODEL =    62

 MAXIMUM STEPSIZE WHICH MEETS STABILITY CRITERION OF THE SINK & SOURCE TERM
 =  1699.    (WHEN MIN. R.F.=1)  AT K=   2, I=   1, J=   1

 MAXIMUM STEPSIZE WHICH MEETS STABILITY CRITERION OF THE DISPERSION TERM
 =  20.29    (WHEN MIN. R.F.=1)  AT K=   1, I=   1, J=  31
     1 CALLS TO GCG PACKAGE FOR TRANSPORT TIME STEP   3 IN FLOW TIME STEP 480 STRESS PERIOD   1
     6 TOTAL ITERATIONS
 
 SOLVING FOR HEAD 
 FLOW MODEL IS TRANSIENT
 FLOW MODEL CONTAINS CONSTANT-HEAD CELLS


 MAXIMUM STEPSIZE DURING WHICH ANY PARTICLE CANNOT MOVE MORE THAN ONE CELL
 =  5.141    (WHEN MIN. R.F.=1)  AT K=   4, I=   1, J=  74

 MAXIMUM STEPSIZE WHICH MEETS STABILITY CRITERION OF THE ADVECTION TERM
 (FOR PURE FINITE-DIFFERENCE OPTION, MIXELM=0) 
 =  3.885    (WHEN MIN. R.F.=1)  AT K=   2, I=   1, J=  81


 TOTAL NUMBER OF POINT SOURCES/SINKS PRESENT IN THE FLOW MODEL =    62

 MAXIMUM STEPSIZE WHICH MEETS STABILITY CRITERION OF THE SINK & SOURCE TERM
 =  1353.    (WHEN MIN. R.F.=1)  AT K=   2, I=   1, J=   1

 MAXIMUM STEPSIZE WHICH MEETS STABILITY CRITERION OF THE DISPERSION TERM
 =  20.29    (WHEN MIN. R.F.=1)  AT K=   1, I=   1, J=  31
     1 CALLS TO GCG PACKAGE FOR TRANSPORT TIME STEP   4 IN FLOW TIME STEP 480 STRESS PERIOD   1
     4 TOTAL ITERATIONS
  MAXIMUM CONCENTRATION CHANGES FOR EACH ITERATION:
  MAX. CHANGE LAYER,ROW,COL MAX. CHANGE LAYER,ROW,COL MAX. CHANGE LAYER,ROW,COL MAX. CHANGE LAYER,ROW,COL MAX. CHANGE LAYER,ROW,COL
 ------------------------------------------------------------------------------------------------------------------------------------
   0.4378E-02 (  2,  1, 82)  0.2969E-04 (  2,  1, 82)  0.2125E-06 (  2,  1, 83)  0.1661E-08 (  3,  1, 83)


                                          ================================================
                                                         FROM TIME =   4800.0     TO    4810.0    

 
 SOLVING FOR HEAD 
 FLOW MODEL IS TRANSIENT
 FLOW MODEL CONTAINS CONSTANT-HEAD CELLS


 MAXIMUM STEPSIZE DURING WHICH ANY PARTICLE CANNOT MOVE MORE THAN ONE CELL
 =  5.123    (WHEN MIN. R.F.=1)  AT K=   4, I=   1, J=  74

 MAXIMUM STEPSIZE WHICH MEETS STABILITY CRITERION OF THE ADVECTION TERM
 (FOR PURE FINITE-DIFFERENCE OPTION, MIXELM=0) 
 =  3.901    (WHEN MIN. R.F.=1)  AT K=   2, I=   1, J=  81


 TOTAL NUMBER OF POINT SOURCES/SINKS PRESENT IN THE FLOW MODEL =    62

 MAXIMUM STEPSIZE WHICH MEETS STABILITY CRITERION OF THE SINK & SOURCE TERM
 =  1885.    (WHEN MIN. R.F.=1)  AT K=   2, I=   1, J=   1

 MAXIMUM STEPSIZE WHICH MEETS STABILITY CRITERION OF THE DISPERSION TERM
 =  20.29    (WHEN MIN. R.F.=1)  AT K=   1, I=   1, J=  31


     1 CALLS TO GCG PACKAGE FOR TRANSPORT TIME STEP   1 IN FLOW TIME STEP 481 STRESS PERIOD   1
     6 TOTAL ITERATIONS

 NO OUTPUT CONTROL FOR STRESS PERIOD    1   TIME STEP 481
 
 SOLVING FOR HEAD 
 FLOW MODEL IS TRANSIENT
 FLOW MODEL CONTAINS CONSTANT-HEAD CELLS


 MAXIMUM STEPSIZE DURING WHICH ANY PARTICLE CANNOT MOVE MORE THAN ONE CELL
 =  5.011    (WHEN MIN. R.F.=1)  AT K=   4, I=   1, J=  74

 MAXIMUM STEPSIZE WHICH MEETS STABILITY CRITERION OF THE ADVECTION TERM
 (FOR PURE FINITE-DIFFERENCE OPTION, MIXELM=0) 
 =  4.147    (WHEN MIN. R.F.=1)  AT K=   2, I=   1, J=  81


 TOTAL NUMBER OF POINT SOURCES/SINKS PRESENT IN THE FLOW MODEL =    62

 MAXIMUM STEPSIZE WHICH MEETS STABILITY CRITERION OF THE SINK & SOURCE TERM
 =  1144.    (WHEN MIN. R.F.=1)  AT K=   2, I=   1, J=   1

 MAXIMUM STEPSIZE WHICH MEETS STABILITY CRITERION OF THE DISPERSION TERM
 =  20.29    (WHEN MIN. R.F.=1)  AT K=   1, I=   1, J=  31
     1 CALLS TO GCG PACKAGE FOR TRANSPORT TIME STEP   2 IN FLOW TIME STEP 481 STRESS PERIOD   1
     6 TOTAL ITERATIONS
 
 SOLVING FOR HEAD 
 FLOW MODEL IS TRANSIENT
 FLOW MODEL CONTAINS CONSTANT-HEAD CELLS


 MAXIMUM STEPSIZE DURING WHICH ANY PARTICLE CANNOT MOVE MORE THAN ONE CELL
 =  4.965    (WHEN MIN. R.F.=1)  AT K=   4, I=   1, J=  74

 MAXIMUM STEPSIZE WHICH MEETS STABILITY CRITERION OF THE ADVECTION TERM
 (FOR PURE FINITE-DIFFERENCE OPTION, MIXELM=0) 
 =  3.798    (WHEN MIN. R.F.=1)  AT K=   2, I=   1, J=  80


 TOTAL NUMBER OF POINT SOURCES/SINKS PRESENT IN THE FLOW MODEL =    62

 MAXIMUM STEPSIZE WHICH MEETS STABILITY CRITERION OF THE SINK & SOURCE TERM
 =  985.9    (WHEN MIN. R.F.=1)  AT K=   2, I=   1, J=   1

 MAXIMUM STEPSIZE WHICH MEETS STABILITY CRITERION OF THE DISPERSION TERM
 =  20.29    (WHEN MIN. R.F.=1)  AT K=   1, I=   1, J=  31
     1 CALLS TO GCG PACKAGE FOR TRANSPORT TIME STEP   3 IN FLOW TIME STEP 481 STRESS PERIOD   1
     6 TOTAL ITERATIONS
 
 SOLVING FOR HEAD 
 FLOW MODEL IS TRANSIENT
 FLOW MODEL CONTAINS CONSTANT-HEAD CELLS


 MAXIMUM STEPSIZE DURING WHICH ANY PARTICLE CANNOT MOVE MORE THAN ONE CELL
 =  4.975    (WHEN MIN. R.F.=1)  AT K=   4, I=   1, J=  74

 MAXIMUM STEPSIZE WHICH MEETS STABILITY CRITERION OF THE ADVECTION TERM
 (FOR PURE FINITE-DIFFERENCE OPTION, MIXELM=0) 
 =  3.612    (WHEN MIN. R.F.=1)  AT K=   2, I=   1, J=  80


 TOTAL NUMBER OF POINT SOURCES/SINKS PRESENT IN THE FLOW MODEL =    62

 MAXIMUM STEPSIZE WHICH MEETS STABILITY CRITERION OF THE SINK & SOURCE TERM
 =  896.5    (WHEN MIN. R.F.=1)  AT K=   2, I=   1, J=   1

 MAXIMUM STEPSIZE WHICH MEETS STABILITY CRITERION OF THE DISPERSION TERM
 =  20.29    (WHEN MIN. R.F.=1)  AT K=   1, I=   1, J=  31
     1 CALLS TO GCG PACKAGE FOR TRANSPORT TIME STEP   4 IN FLOW TIME STEP 481 STRESS PERIOD   1
     5 TOTAL ITERATIONS
  MAXIMUM CONCENTRATION CHANGES FOR EACH ITERATION:
  MAX. CHANGE LAYER,ROW,COL MAX. CHANGE LAYER,ROW,COL MAX. CHANGE LAYER,ROW,COL MAX. CHANGE LAYER,ROW,COL MAX. CHANGE LAYER,ROW,COL
 ------------------------------------------------------------------------------------------------------------------------------------
   0.1210E-01 (  2,  1, 38)  0.2059E-03 (  2,  1, 81)  0.5094E-05 (  3,  1, 79)  0.1339E-06 (  3,  1, 77)  0.2591E-08 (  4,  1, 77)


                                          ================================================
                                                         FROM TIME =   4810.0     TO    4820.0    

 
 SOLVING FOR HEAD 
 FLOW MODEL IS TRANSIENT
 FLOW MODEL CONTAINS CONSTANT-HEAD CELLS


 MAXIMUM STEPSIZE DURING WHICH ANY PARTICLE CANNOT MOVE MORE THAN ONE CELL
 =  4.993    (WHEN MIN. R.F.=1)  AT K=   4, I=   1, J=  74

 MAXIMUM STEPSIZE WHICH MEETS STABILITY CRITERION OF THE ADVECTION TERM
 (FOR PURE FINITE-DIFFERENCE OPTION, MIXELM=0) 
 =  3.604    (WHEN MIN. R.F.=1)  AT K=   2, I=   1, J=  80


 TOTAL NUMBER OF POINT SOURCES/SINKS PRESENT IN THE FLOW MODEL =    62

 MAXIMUM STEPSIZE WHICH MEETS STABILITY CRITERION OF THE SINK & SOURCE TERM
 =  1308.    (WHEN MIN. R.F.=1)  AT K=   2, I=   1, J=   1

 MAXIMUM STEPSIZE WHICH MEETS STABILITY CRITERION OF THE DISPERSION TERM
 =  20.29    (WHEN MIN. R.F.=1)  AT K=   1, I=   1, J=  31


     1 CALLS TO GCG PACKAGE FOR TRANSPORT TIME STEP   1 IN FLOW TIME STEP 482 STRESS PERIOD   1
     6 TOTAL ITERATIONS

 NO OUTPUT CONTROL FOR STRESS PERIOD    1   TIME STEP 482
 
 SOLVING FOR HEAD 
 FLOW MODEL IS TRANSIENT
 FLOW MODEL CONTAINS CONSTANT-HEAD CELLS


 MAXIMUM STEPSIZE DURING WHICH ANY PARTICLE CANNOT MOVE MORE THAN ONE CELL
 =  5.046    (WHEN MIN. R.F.=1)  AT K=   5, I=   1, J=  74

 MAXIMUM STEPSIZE WHICH MEETS STABILITY CRITERION OF THE ADVECTION TERM
 (FOR PURE FINITE-DIFFERENCE OPTION, MIXELM=0) 
 =  3.680    (WHEN MIN. R.F.=1)  AT K=   2, I=   1, J=  80


 TOTAL NUMBER OF POINT SOURCES/SINKS PRESENT IN THE FLOW MODEL =    62

 MAXIMUM STEPSIZE WHICH MEETS STABILITY CRITERION OF THE SINK & SOURCE TERM
 =  949.9    (WHEN MIN. R.F.=1)  AT K=   2, I=   1, J=   1

 MAXIMUM STEPSIZE WHICH MEETS STABILITY CRITERION OF THE DISPERSION TERM
 =  20.29    (WHEN MIN. R.F.=1)  AT K=   1, I=   1, J=  31
     1 CALLS TO GCG PACKAGE FOR TRANSPORT TIME STEP   2 IN FLOW TIME STEP 482 STRESS PERIOD   1
     6 TOTAL ITERATIONS
 
 SOLVING FOR HEAD 
 FLOW MODEL IS TRANSIENT
 FLOW MODEL CONTAINS CONSTANT-HEAD CELLS


 MAXIMUM STEPSIZE DURING WHICH ANY PARTICLE CANNOT MOVE MORE THAN ONE CELL
 =  5.099    (WHEN MIN. R.F.=1)  AT K=   5, I=   1, J=  74

 MAXIMUM STEPSIZE WHICH MEETS STABILITY CRITERION OF THE ADVECTION TERM
 (FOR PURE FINITE-DIFFERENCE OPTION, MIXELM=0) 
 =  3.990    (WHEN MIN. R.F.=1)  AT K=   2, I=   1, J=  80


 TOTAL NUMBER OF POINT SOURCES/SINKS PRESENT IN THE FLOW MODEL =    62

 MAXIMUM STEPSIZE WHICH MEETS STABILITY CRITERION OF THE SINK & SOURCE TERM
 =  876.6    (WHEN MIN. R.F.=1)  AT K=   2, I=   1, J=   1

 MAXIMUM STEPSIZE WHICH MEETS STABILITY CRITERION OF THE DISPERSION TERM
 =  20.29    (WHEN MIN. R.F.=1)  AT K=   1, I=   1, J=  31
     1 CALLS TO GCG PACKAGE FOR TRANSPORT TIME STEP   3 IN FLOW TIME STEP 482 STRESS PERIOD   1
     6 TOTAL ITERATIONS
 
 SOLVING FOR HEAD 
 FLOW MODEL IS TRANSIENT
 FLOW MODEL CONTAINS CONSTANT-HEAD CELLS


 MAXIMUM STEPSIZE DURING WHICH ANY PARTICLE CANNOT MOVE MORE THAN ONE CELL
 =  5.189    (WHEN MIN. R.F.=1)  AT K=   5, I=   1, J=  74

 MAXIMUM STEPSIZE WHICH MEETS STABILITY CRITERION OF THE ADVECTION TERM
 (FOR PURE FINITE-DIFFERENCE OPTION, MIXELM=0) 
 =  3.713    (WHEN MIN. R.F.=1)  AT K=   2, I=   1, J=  79


 TOTAL NUMBER OF POINT SOURCES/SINKS PRESENT IN THE FLOW MODEL =    62

 MAXIMUM STEPSIZE WHICH MEETS STABILITY CRITERION OF THE SINK & SOURCE TERM
 =  847.2    (WHEN MIN. R.F.=1)  AT K=   2, I=   1, J=   1

 MAXIMUM STEPSIZE WHICH MEETS STABILITY CRITERION OF THE DISPERSION TERM
 =  20.29    (WHEN MIN. R.F.=1)  AT K=   1, I=   1, J=  31
     1 CALLS TO GCG PACKAGE FOR TRANSPORT TIME STEP   4 IN FLOW TIME STEP 482 STRESS PERIOD   1
     5 TOTAL ITERATIONS
  MAXIMUM CONCENTRATION CHANGES FOR EACH ITERATION:
  MAX. CHANGE LAYER,ROW,COL MAX. CHANGE LAYER,ROW,COL MAX. CHANGE LAYER,ROW,COL MAX. CHANGE LAYER,ROW,COL MAX. CHANGE LAYER,ROW,COL
 ------------------------------------------------------------------------------------------------------------------------------------
   0.2128E-01 (  2,  1, 39)  0.6280E-03 (  2,  1, 79)  0.2311E-04 (  2,  1, 76)  0.1458E-05 (  3,  1, 76)  0.4483E-07 (  4,  1, 76)


                                          ================================================
                                                         FROM TIME =   4820.0     TO    4830.0    

 
 SOLVING FOR HEAD 
 FLOW MODEL IS TRANSIENT
 FLOW MODEL CONTAINS CONSTANT-HEAD CELLS


 MAXIMUM STEPSIZE DURING WHICH ANY PARTICLE CANNOT MOVE MORE THAN ONE CELL
 =  5.272    (WHEN MIN. R.F.=1)  AT K=   5, I=   1, J=  74

 MAXIMUM STEPSIZE WHICH MEETS STABILITY CRITERION OF THE ADVECTION TERM
 (FOR PURE FINITE-DIFFERENCE OPTION, MIXELM=0) 
 =  3.614    (WHEN MIN. R.F.=1)  AT K=   2, I=   1, J=  79


 TOTAL NUMBER OF POINT SOURCES/SINKS PRESENT IN THE FLOW MODEL =    62

 MAXIMUM STEPSIZE WHICH MEETS STABILITY CRITERION OF THE SINK & SOURCE TERM
 =  857.7    (WHEN MIN. R.F.=1)  AT K=   2, I=   1, J=   1

 MAXIMUM STEPSIZE WHICH MEETS STABILITY CRITERION OF THE DISPERSION TERM
 =  20.29    (WHEN MIN. R.F.=1)  AT K=   1, I=   1, J=  31


     1 CALLS TO GCG PACKAGE FOR TRANSPORT TIME STEP   1 IN FLOW TIME STEP 483 STRESS PERIOD   1
     6 TOTAL ITERATIONS

 NO OUTPUT CONTROL FOR STRESS PERIOD    1   TIME STEP 483
 
 SOLVING FOR HEAD 
 FLOW MODEL IS TRANSIENT
 FLOW MODEL CONTAINS CONSTANT-HEAD CELLS


 MAXIMUM STEPSIZE DURING WHICH ANY PARTICLE CANNOT MOVE MORE THAN ONE CELL
 =  5.361    (WHEN MIN. R.F.=1)  AT K=   4, I=   1, J=  47

 MAXIMUM STEPSIZE WHICH MEETS STABILITY CRITERION OF THE ADVECTION TERM
 (FOR PURE FINITE-DIFFERENCE OPTION, MIXELM=0) 
 =  3.566    (WHEN MIN. R.F.=1)  AT K=   2, I=   1, J=  79


 TOTAL NUMBER OF POINT SOURCES/SINKS PRESENT IN THE FLOW MODEL =    62

 MAXIMUM STEPSIZE WHICH MEETS STABILITY CRITERION OF THE SINK & SOURCE TERM
 =  796.1    (WHEN MIN. R.F.=1)  AT K=   2, I=   1, J=   1

 MAXIMUM STEPSIZE WHICH MEETS STABILITY CRITERION OF THE DISPERSION TERM
 =  20.29    (WHEN MIN. R.F.=1)  AT K=   1, I=   1, J=  31
     1 CALLS TO GCG PACKAGE FOR TRANSPORT TIME STEP   2 IN FLOW TIME STEP 483 STRESS PERIOD   1
     6 TOTAL ITERATIONS
 
 SOLVING FOR HEAD 
 FLOW MODEL IS TRANSIENT
 FLOW MODEL CONTAINS CONSTANT-HEAD CELLS


 MAXIMUM STEPSIZE DURING WHICH ANY PARTICLE CANNOT MOVE MORE THAN ONE CELL
 =  5.410    (WHEN MIN. R.F.=1)  AT K=   4, I=   1, J=  47

 MAXIMUM STEPSIZE WHICH MEETS STABILITY CRITERION OF THE ADVECTION TERM
 (FOR PURE FINITE-DIFFERENCE OPTION, MIXELM=0) 
 =  3.646    (WHEN MIN. R.F.=1)  AT K=   2, I=   1, J=  79


 TOTAL NUMBER OF POINT SOURCES/SINKS PRESENT IN THE FLOW MODEL =    62

 MAXIMUM STEPSIZE WHICH MEETS STABILITY CRITERION OF THE SINK & SOURCE TERM
 =  846.9    (WHEN MIN. R.F.=1)  AT K=   2, I=   1, J=   1

 MAXIMUM STEPSIZE WHICH MEETS STABILITY CRITERION OF THE DISPERSION TERM
 =  20.29    (WHEN MIN. R.F.=1)  AT K=   1, I=   1, J=  31
     1 CALLS TO GCG PACKAGE FOR TRANSPORT TIME STEP   3 IN FLOW TIME STEP 483 STRESS PERIOD   1
     6 TOTAL ITERATIONS
 
 SOLVING FOR HEAD 
 FLOW MODEL IS TRANSIENT
 FLOW MODEL CONTAINS CONSTANT-HEAD CELLS


 MAXIMUM STEPSIZE DURING WHICH ANY PARTICLE CANNOT MOVE MORE THAN ONE CELL
 =  5.492    (WHEN MIN. R.F.=1)  AT K=   5, I=   1, J=  47

 MAXIMUM STEPSIZE WHICH MEETS STABILITY CRITERION OF THE ADVECTION TERM
 (FOR PURE FINITE-DIFFERENCE OPTION, MIXELM=0) 
 =  3.790    (WHEN MIN. R.F.=1)  AT K=   2, I=   1, J=  41


 TOTAL NUMBER OF POINT SOURCES/SINKS PRESENT IN THE FLOW MODEL =    62

 MAXIMUM STEPSIZE WHICH MEETS STABILITY CRITERION OF THE SINK & SOURCE TERM
 =  931.8    (WHEN MIN. R.F.=1)  AT K=   2, I=   1, J=   1

 MAXIMUM STEPSIZE WHICH MEETS STABILITY CRITERION OF THE DISPERSION TERM
 =  20.29    (WHEN MIN. R.F.=1)  AT K=   1, I=   1, J=  31
     1 CALLS TO GCG PACKAGE FOR TRANSPORT TIME STEP   4 IN FLOW TIME STEP 483 STRESS PERIOD   1
     5 TOTAL ITERATIONS
  MAXIMUM CONCENTRATION CHANGES FOR EACH ITERATION:
  MAX. CHANGE LAYER,ROW,COL MAX. CHANGE LAYER,ROW,COL MAX. CHANGE LAYER,ROW,COL MAX. CHANGE LAYER,ROW,COL MAX. CHANGE LAYER,ROW,COL
 ------------------------------------------------------------------------------------------------------------------------------------
   0.2206E-01 (  2,  1, 80)  0.6924E-03 (  2,  1, 78)  0.2811E-04 (  3,  1, 78)  0.1191E-05 (  3,  1, 76)  0.3510E-07 (  4,  1, 79)


                                          ================================================
                                                         FROM TIME =   4830.0     TO    4840.0    

 
 SOLVING FOR HEAD 
 FLOW MODEL IS TRANSIENT
 FLOW MODEL CONTAINS CONSTANT-HEAD CELLS


 MAXIMUM STEPSIZE DURING WHICH ANY PARTICLE CANNOT MOVE MORE THAN ONE CELL
 =  5.530    (WHEN MIN. R.F.=1)  AT K=   5, I=   1, J=  47

 MAXIMUM STEPSIZE WHICH MEETS STABILITY CRITERION OF THE ADVECTION TERM
 (FOR PURE FINITE-DIFFERENCE OPTION, MIXELM=0) 
 =  3.830    (WHEN MIN. R.F.=1)  AT K=   2, I=   1, J=  41


 TOTAL NUMBER OF POINT SOURCES/SINKS PRESENT IN THE FLOW MODEL =    62

 MAXIMUM STEPSIZE WHICH MEETS STABILITY CRITERION OF THE SINK & SOURCE TERM
 =  1169.    (WHEN MIN. R.F.=1)  AT K=   2, I=   1, J=   1

 MAXIMUM STEPSIZE WHICH MEETS STABILITY CRITERION OF THE DISPERSION TERM
 =  20.29    (WHEN MIN. R.F.=1)  AT K=   1, I=   1, J=  31


     1 CALLS TO GCG PACKAGE FOR TRANSPORT TIME STEP   1 IN FLOW TIME STEP 484 STRESS PERIOD   1
     6 TOTAL ITERATIONS

 NO OUTPUT CONTROL FOR STRESS PERIOD    1   TIME STEP 484
 
 SOLVING FOR HEAD 
 FLOW MODEL IS TRANSIENT
 FLOW MODEL CONTAINS CONSTANT-HEAD CELLS


 MAXIMUM STEPSIZE DURING WHICH ANY PARTICLE CANNOT MOVE MORE THAN ONE CELL
 =  5.641    (WHEN MIN. R.F.=1)  AT K=   5, I=   1, J=  47

 MAXIMUM STEPSIZE WHICH MEETS STABILITY CRITERION OF THE ADVECTION TERM
 (FOR PURE FINITE-DIFFERENCE OPTION, MIXELM=0) 
 =  3.740    (WHEN MIN. R.F.=1)  AT K=   2, I=   1, J=  78


 TOTAL NUMBER OF POINT SOURCES/SINKS PRESENT IN THE FLOW MODEL =    62

 MAXIMUM STEPSIZE WHICH MEETS STABILITY CRITERION OF THE SINK & SOURCE TERM
 =  1011.    (WHEN MIN. R.F.=1)  AT K=   2, I=   1, J=   1

 MAXIMUM STEPSIZE WHICH MEETS STABILITY CRITERION OF THE DISPERSION TERM
 =  20.29    (WHEN MIN. R.F.=1)  AT K=   1, I=   1, J=  31
     1 CALLS TO GCG PACKAGE FOR TRANSPORT TIME STEP   2 IN FLOW TIME STEP 484 STRESS PERIOD   1
     6 TOTAL ITERATIONS
 
 SOLVING FOR HEAD 
 FLOW MODEL IS TRANSIENT
 FLOW MODEL CONTAINS CONSTANT-HEAD CELLS


 MAXIMUM STEPSIZE DURING WHICH ANY PARTICLE CANNOT MOVE MORE THAN ONE CELL
 =  5.789    (WHEN MIN. R.F.=1)  AT K=   6, I=   1, J=  47

 MAXIMUM STEPSIZE WHICH MEETS STABILITY CRITERION OF THE ADVECTION TERM
 (FOR PURE FINITE-DIFFERENCE OPTION, MIXELM=0) 
 =  3.644    (WHEN MIN. R.F.=1)  AT K=   2, I=   1, J=  78


 TOTAL NUMBER OF POINT SOURCES/SINKS PRESENT IN THE FLOW MODEL =    62

 MAXIMUM STEPSIZE WHICH MEETS STABILITY CRITERION OF THE SINK & SOURCE TERM
 =  1041.    (WHEN MIN. R.F.=1)  AT K=   2, I=   1, J=   1

 MAXIMUM STEPSIZE WHICH MEETS STABILITY CRITERION OF THE DISPERSION TERM
 =  20.29    (WHEN MIN. R.F.=1)  AT K=   1, I=   1, J=  31
     1 CALLS TO GCG PACKAGE FOR TRANSPORT TIME STEP   3 IN FLOW TIME STEP 484 STRESS PERIOD   1
     6 TOTAL ITERATIONS
 
 SOLVING FOR HEAD 
 FLOW MODEL IS TRANSIENT
 FLOW MODEL CONTAINS CONSTANT-HEAD CELLS


 MAXIMUM STEPSIZE DURING WHICH ANY PARTICLE CANNOT MOVE MORE THAN ONE CELL
 =  5.884    (WHEN MIN. R.F.=1)  AT K=   6, I=   1, J=  47

 MAXIMUM STEPSIZE WHICH MEETS STABILITY CRITERION OF THE ADVECTION TERM
 (FOR PURE FINITE-DIFFERENCE OPTION, MIXELM=0) 
 =  3.674    (WHEN MIN. R.F.=1)  AT K=   2, I=   1, J=  78


 TOTAL NUMBER OF POINT SOURCES/SINKS PRESENT IN THE FLOW MODEL =    62

 MAXIMUM STEPSIZE WHICH MEETS STABILITY CRITERION OF THE SINK & SOURCE TERM
 =  1095.    (WHEN MIN. R.F.=1)  AT K=   2, I=   1, J=   1

 MAXIMUM STEPSIZE WHICH MEETS STABILITY CRITERION OF THE DISPERSION TERM
 =  20.29    (WHEN MIN. R.F.=1)  AT K=   1, I=   1, J=  31
     1 CALLS TO GCG PACKAGE FOR TRANSPORT TIME STEP   4 IN FLOW TIME STEP 484 STRESS PERIOD   1
     5 TOTAL ITERATIONS
  MAXIMUM CONCENTRATION CHANGES FOR EACH ITERATION:
  MAX. CHANGE LAYER,ROW,COL MAX. CHANGE LAYER,ROW,COL MAX. CHANGE LAYER,ROW,COL MAX. CHANGE LAYER,ROW,COL MAX. CHANGE LAYER,ROW,COL
 ------------------------------------------------------------------------------------------------------------------------------------
   0.1824E-01 (  2,  1, 79)  0.4144E-03 (  2,  1, 79)  0.1223E-04 (  2,  1, 80)  0.6704E-06 (  3,  1, 45)  0.1849E-07 (  4,  1, 45)


                                          ================================================
                                                         FROM TIME =   4840.0     TO    4850.0    

 
 SOLVING FOR HEAD 
 FLOW MODEL IS TRANSIENT
 FLOW MODEL CONTAINS CONSTANT-HEAD CELLS


 MAXIMUM STEPSIZE DURING WHICH ANY PARTICLE CANNOT MOVE MORE THAN ONE CELL
 =  5.909    (WHEN MIN. R.F.=1)  AT K=   4, I=   1, J=  60

 MAXIMUM STEPSIZE WHICH MEETS STABILITY CRITERION OF THE ADVECTION TERM
 (FOR PURE FINITE-DIFFERENCE OPTION, MIXELM=0) 
 =  3.722    (WHEN MIN. R.F.=1)  AT K=   2, I=   1, J=  42


 TOTAL NUMBER OF POINT SOURCES/SINKS PRESENT IN THE FLOW MODEL =    62

 MAXIMUM STEPSIZE WHICH MEETS STABILITY CRITERION OF THE SINK & SOURCE TERM
 =  1480.    (WHEN MIN. R.F.=1)  AT K=   2, I=   1, J=   1

 MAXIMUM STEPSIZE WHICH MEETS STABILITY CRITERION OF THE DISPERSION TERM
 =  20.29    (WHEN MIN. R.F.=1)  AT K=   1, I=   1, J=  31


     1 CALLS TO GCG PACKAGE FOR TRANSPORT TIME STEP   1 IN FLOW TIME STEP 485 STRESS PERIOD   1
     6 TOTAL ITERATIONS

 NO OUTPUT CONTROL FOR STRESS PERIOD    1   TIME STEP 485
 
 SOLVING FOR HEAD 
 FLOW MODEL IS TRANSIENT
 FLOW MODEL CONTAINS CONSTANT-HEAD CELLS


 MAXIMUM STEPSIZE DURING WHICH ANY PARTICLE CANNOT MOVE MORE THAN ONE CELL
 =  5.903    (WHEN MIN. R.F.=1)  AT K=   4, I=   1, J=  60

 MAXIMUM STEPSIZE WHICH MEETS STABILITY CRITERION OF THE ADVECTION TERM
 (FOR PURE FINITE-DIFFERENCE OPTION, MIXELM=0) 
 =  3.769    (WHEN MIN. R.F.=1)  AT K=   2, I=   1, J=  42


 TOTAL NUMBER OF POINT SOURCES/SINKS PRESENT IN THE FLOW MODEL =    62

 MAXIMUM STEPSIZE WHICH MEETS STABILITY CRITERION OF THE SINK & SOURCE TERM
 =  1364.    (WHEN MIN. R.F.=1)  AT K=   2, I=   1, J=   1

 MAXIMUM STEPSIZE WHICH MEETS STABILITY CRITERION OF THE DISPERSION TERM
 =  20.29    (WHEN MIN. R.F.=1)  AT K=   1, I=   1, J=  31
     1 CALLS TO GCG PACKAGE FOR TRANSPORT TIME STEP   2 IN FLOW TIME STEP 485 STRESS PERIOD   1
     6 TOTAL ITERATIONS
 
 SOLVING FOR HEAD 
 FLOW MODEL IS TRANSIENT
 FLOW MODEL CONTAINS CONSTANT-HEAD CELLS


 MAXIMUM STEPSIZE DURING WHICH ANY PARTICLE CANNOT MOVE MORE THAN ONE CELL
 =  5.895    (WHEN MIN. R.F.=1)  AT K=   4, I=   1, J=  60

 MAXIMUM STEPSIZE WHICH MEETS STABILITY CRITERION OF THE ADVECTION TERM
 (FOR PURE FINITE-DIFFERENCE OPTION, MIXELM=0) 
 =  3.958    (WHEN MIN. R.F.=1)  AT K=   2, I=   1, J=  42


 TOTAL NUMBER OF POINT SOURCES/SINKS PRESENT IN THE FLOW MODEL =    62

 MAXIMUM STEPSIZE WHICH MEETS STABILITY CRITERION OF THE SINK & SOURCE TERM
 =  1634.    (WHEN MIN. R.F.=1)  AT K=   2, I=   1, J=   1

 MAXIMUM STEPSIZE WHICH MEETS STABILITY CRITERION OF THE DISPERSION TERM
 =  20.29    (WHEN MIN. R.F.=1)  AT K=   1, I=   1, J=  31
     1 CALLS TO GCG PACKAGE FOR TRANSPORT TIME STEP   3 IN FLOW TIME STEP 485 STRESS PERIOD   1
     6 TOTAL ITERATIONS
 
 SOLVING FOR HEAD 
 FLOW MODEL IS TRANSIENT
 FLOW MODEL CONTAINS CONSTANT-HEAD CELLS


 MAXIMUM STEPSIZE DURING WHICH ANY PARTICLE CANNOT MOVE MORE THAN ONE CELL
 =  5.888    (WHEN MIN. R.F.=1)  AT K=   4, I=   1, J=  60

 MAXIMUM STEPSIZE WHICH MEETS STABILITY CRITERION OF THE ADVECTION TERM
 (FOR PURE FINITE-DIFFERENCE OPTION, MIXELM=0) 
 =  3.917    (WHEN MIN. R.F.=1)  AT K=   2, I=   1, J=  77


 TOTAL NUMBER OF POINT SOURCES/SINKS PRESENT IN THE FLOW MODEL =    62

 MAXIMUM STEPSIZE WHICH MEETS STABILITY CRITERION OF THE SINK & SOURCE TERM
 =  1673.    (WHEN MIN. R.F.=1)  AT K=   2, I=   1, J=   1

 MAXIMUM STEPSIZE WHICH MEETS STABILITY CRITERION OF THE DISPERSION TERM
 =  20.29    (WHEN MIN. R.F.=1)  AT K=   1, I=   1, J=  31
     1 CALLS TO GCG PACKAGE FOR TRANSPORT TIME STEP   4 IN FLOW TIME STEP 485 STRESS PERIOD   1
     5 TOTAL ITERATIONS
  MAXIMUM CONCENTRATION CHANGES FOR EACH ITERATION:
  MAX. CHANGE LAYER,ROW,COL MAX. CHANGE LAYER,ROW,COL MAX. CHANGE LAYER,ROW,COL MAX. CHANGE LAYER,ROW,COL MAX. CHANGE LAYER,ROW,COL
 ------------------------------------------------------------------------------------------------------------------------------------
   0.1777E-01 (  2,  1, 41)  0.5415E-03 (  2,  1, 77)  0.1537E-04 (  3,  1, 77)  0.4580E-06 (  3,  1, 40)  0.1687E-07 (  3,  1, 88)


                                          ================================================
                                                         FROM TIME =   4850.0     TO    4860.0    

 
 SOLVING FOR HEAD 
 FLOW MODEL IS TRANSIENT
 FLOW MODEL CONTAINS CONSTANT-HEAD CELLS


 MAXIMUM STEPSIZE DURING WHICH ANY PARTICLE CANNOT MOVE MORE THAN ONE CELL
 =  5.887    (WHEN MIN. R.F.=1)  AT K=   4, I=   1, J=  60

 MAXIMUM STEPSIZE WHICH MEETS STABILITY CRITERION OF THE ADVECTION TERM
 (FOR PURE FINITE-DIFFERENCE OPTION, MIXELM=0) 
 =  3.857    (WHEN MIN. R.F.=1)  AT K=   2, I=   1, J=  77


 TOTAL NUMBER OF POINT SOURCES/SINKS PRESENT IN THE FLOW MODEL =    62

 MAXIMUM STEPSIZE WHICH MEETS STABILITY CRITERION OF THE SINK & SOURCE TERM
 =  2263.    (WHEN MIN. R.F.=1)  AT K=   2, I=   1, J=   1

 MAXIMUM STEPSIZE WHICH MEETS STABILITY CRITERION OF THE DISPERSION TERM
 =  20.29    (WHEN MIN. R.F.=1)  AT K=   1, I=   1, J=  31


     1 CALLS TO GCG PACKAGE FOR TRANSPORT TIME STEP   1 IN FLOW TIME STEP 486 STRESS PERIOD   1
     6 TOTAL ITERATIONS

 NO OUTPUT CONTROL FOR STRESS PERIOD    1   TIME STEP 486
 
 SOLVING FOR HEAD 
 FLOW MODEL IS TRANSIENT
 FLOW MODEL CONTAINS CONSTANT-HEAD CELLS


 MAXIMUM STEPSIZE DURING WHICH ANY PARTICLE CANNOT MOVE MORE THAN ONE CELL
 =  5.879    (WHEN MIN. R.F.=1)  AT K=   4, I=   1, J=  60

 MAXIMUM STEPSIZE WHICH MEETS STABILITY CRITERION OF THE ADVECTION TERM
 (FOR PURE FINITE-DIFFERENCE OPTION, MIXELM=0) 
 =  3.780    (WHEN MIN. R.F.=1)  AT K=   2, I=   1, J=  43


 TOTAL NUMBER OF POINT SOURCES/SINKS PRESENT IN THE FLOW MODEL =    62

 MAXIMUM STEPSIZE WHICH MEETS STABILITY CRITERION OF THE SINK & SOURCE TERM
 =  1926.    (WHEN MIN. R.F.=1)  AT K=   2, I=   1, J=   1

 MAXIMUM STEPSIZE WHICH MEETS STABILITY CRITERION OF THE DISPERSION TERM
 =  20.29    (WHEN MIN. R.F.=1)  AT K=   1, I=   1, J=  31
     1 CALLS TO GCG PACKAGE FOR TRANSPORT TIME STEP   2 IN FLOW TIME STEP 486 STRESS PERIOD   1
     6 TOTAL ITERATIONS
 
 SOLVING FOR HEAD 
 FLOW MODEL IS TRANSIENT
 FLOW MODEL CONTAINS CONSTANT-HEAD CELLS


 MAXIMUM STEPSIZE DURING WHICH ANY PARTICLE CANNOT MOVE MORE THAN ONE CELL
 =  5.871    (WHEN MIN. R.F.=1)  AT K=   4, I=   1, J=  60

 MAXIMUM STEPSIZE WHICH MEETS STABILITY CRITERION OF THE ADVECTION TERM
 (FOR PURE FINITE-DIFFERENCE OPTION, MIXELM=0) 
 =  3.795    (WHEN MIN. R.F.=1)  AT K=   2, I=   1, J=  43


 TOTAL NUMBER OF POINT SOURCES/SINKS PRESENT IN THE FLOW MODEL =    62

 MAXIMUM STEPSIZE WHICH MEETS STABILITY CRITERION OF THE SINK & SOURCE TERM
 =  2422.    (WHEN MIN. R.F.=1)  AT K=   2, I=   1, J=   1

 MAXIMUM STEPSIZE WHICH MEETS STABILITY CRITERION OF THE DISPERSION TERM
 =  20.29    (WHEN MIN. R.F.=1)  AT K=   1, I=   1, J=  31
     1 CALLS TO GCG PACKAGE FOR TRANSPORT TIME STEP   3 IN FLOW TIME STEP 486 STRESS PERIOD   1
     6 TOTAL ITERATIONS
 
 SOLVING FOR HEAD 
 FLOW MODEL IS TRANSIENT
 FLOW MODEL CONTAINS CONSTANT-HEAD CELLS


 MAXIMUM STEPSIZE DURING WHICH ANY PARTICLE CANNOT MOVE MORE THAN ONE CELL
 =  5.864    (WHEN MIN. R.F.=1)  AT K=   4, I=   1, J=  60

 MAXIMUM STEPSIZE WHICH MEETS STABILITY CRITERION OF THE ADVECTION TERM
 (FOR PURE FINITE-DIFFERENCE OPTION, MIXELM=0) 
 =  3.916    (WHEN MIN. R.F.=1)  AT K=   2, I=   1, J=  43


 TOTAL NUMBER OF POINT SOURCES/SINKS PRESENT IN THE FLOW MODEL =    62

 MAXIMUM STEPSIZE WHICH MEETS STABILITY CRITERION OF THE SINK & SOURCE TERM
 =  2675.    (WHEN MIN. R.F.=1)  AT K=   2, I=   1, J=   1

 MAXIMUM STEPSIZE WHICH MEETS STABILITY CRITERION OF THE DISPERSION TERM
 =  20.29    (WHEN MIN. R.F.=1)  AT K=   1, I=   1, J=  31
     1 CALLS TO GCG PACKAGE FOR TRANSPORT TIME STEP   4 IN FLOW TIME STEP 486 STRESS PERIOD   1
     5 TOTAL ITERATIONS
  MAXIMUM CONCENTRATION CHANGES FOR EACH ITERATION:
  MAX. CHANGE LAYER,ROW,COL MAX. CHANGE LAYER,ROW,COL MAX. CHANGE LAYER,ROW,COL MAX. CHANGE LAYER,ROW,COL MAX. CHANGE LAYER,ROW,COL
 ------------------------------------------------------------------------------------------------------------------------------------
   0.1670E-01 (  2,  1, 78)  0.3190E-03 (  2,  1, 75)  0.8950E-05 (  2,  1, 79)  0.3031E-06 (  3,  1, 79)  0.7529E-08 (  4,  1, 75)


                                          ================================================
                                                         FROM TIME =   4860.0     TO    4870.0    

 
 SOLVING FOR HEAD 
 FLOW MODEL IS TRANSIENT
 FLOW MODEL CONTAINS CONSTANT-HEAD CELLS


 MAXIMUM STEPSIZE DURING WHICH ANY PARTICLE CANNOT MOVE MORE THAN ONE CELL
 =  5.865    (WHEN MIN. R.F.=1)  AT K=   4, I=   1, J=  60

 MAXIMUM STEPSIZE WHICH MEETS STABILITY CRITERION OF THE ADVECTION TERM
 (FOR PURE FINITE-DIFFERENCE OPTION, MIXELM=0) 
 =  4.039    (WHEN MIN. R.F.=1)  AT K=   2, I=   1, J=  43


 TOTAL NUMBER OF POINT SOURCES/SINKS PRESENT IN THE FLOW MODEL =    62

 MAXIMUM STEPSIZE WHICH MEETS STABILITY CRITERION OF THE SINK & SOURCE TERM
 =  3925.    (WHEN MIN. R.F.=1)  AT K=   2, I=   1, J=   1

 MAXIMUM STEPSIZE WHICH MEETS STABILITY CRITERION OF THE DISPERSION TERM
 =  20.29    (WHEN MIN. R.F.=1)  AT K=   1, I=   1, J=  31


     1 CALLS TO GCG PACKAGE FOR TRANSPORT TIME STEP   1 IN FLOW TIME STEP 487 STRESS PERIOD   1
     6 TOTAL ITERATIONS

 NO OUTPUT CONTROL FOR STRESS PERIOD    1   TIME STEP 487
 
 SOLVING FOR HEAD 
 FLOW MODEL IS TRANSIENT
 FLOW MODEL CONTAINS CONSTANT-HEAD CELLS


 MAXIMUM STEPSIZE DURING WHICH ANY PARTICLE CANNOT MOVE MORE THAN ONE CELL
 =  5.858    (WHEN MIN. R.F.=1)  AT K=   4, I=   1, J=  60

 MAXIMUM STEPSIZE WHICH MEETS STABILITY CRITERION OF THE ADVECTION TERM
 (FOR PURE FINITE-DIFFERENCE OPTION, MIXELM=0) 
 =  4.262    (WHEN MIN. R.F.=1)  AT K=   2, I=   1, J=  44


 TOTAL NUMBER OF POINT SOURCES/SINKS PRESENT IN THE FLOW MODEL =    62

 MAXIMUM STEPSIZE WHICH MEETS STABILITY CRITERION OF THE SINK & SOURCE TERM
 =  2335.    (WHEN MIN. R.F.=1)  AT K=   2, I=   1, J=   1

 MAXIMUM STEPSIZE WHICH MEETS STABILITY CRITERION OF THE DISPERSION TERM
 =  20.29    (WHEN MIN. R.F.=1)  AT K=   1, I=   1, J=  31
     1 CALLS TO GCG PACKAGE FOR TRANSPORT TIME STEP   2 IN FLOW TIME STEP 487 STRESS PERIOD   1
     6 TOTAL ITERATIONS
 
 SOLVING FOR HEAD 
 FLOW MODEL IS TRANSIENT
 FLOW MODEL CONTAINS CONSTANT-HEAD CELLS


 MAXIMUM STEPSIZE DURING WHICH ANY PARTICLE CANNOT MOVE MORE THAN ONE CELL
 =  5.851    (WHEN MIN. R.F.=1)  AT K=   4, I=   1, J=  60

 MAXIMUM STEPSIZE WHICH MEETS STABILITY CRITERION OF THE ADVECTION TERM
 (FOR PURE FINITE-DIFFERENCE OPTION, MIXELM=0) 
 =  4.009    (WHEN MIN. R.F.=1)  AT K=   2, I=   1, J=  44


 TOTAL NUMBER OF POINT SOURCES/SINKS PRESENT IN THE FLOW MODEL =    62

 MAXIMUM STEPSIZE WHICH MEETS STABILITY CRITERION OF THE SINK & SOURCE TERM
 =  2362.    (WHEN MIN. R.F.=1)  AT K=   2, I=   1, J=   1

 MAXIMUM STEPSIZE WHICH MEETS STABILITY CRITERION OF THE DISPERSION TERM
 =  20.29    (WHEN MIN. R.F.=1)  AT K=   1, I=   1, J=  31
     1 CALLS TO GCG PACKAGE FOR TRANSPORT TIME STEP   3 IN FLOW TIME STEP 487 STRESS PERIOD   1
     6 TOTAL ITERATIONS
 
 SOLVING FOR HEAD 
 FLOW MODEL IS TRANSIENT
 FLOW MODEL CONTAINS CONSTANT-HEAD CELLS


 MAXIMUM STEPSIZE DURING WHICH ANY PARTICLE CANNOT MOVE MORE THAN ONE CELL
 =  5.845    (WHEN MIN. R.F.=1)  AT K=   4, I=   1, J=  60

 MAXIMUM STEPSIZE WHICH MEETS STABILITY CRITERION OF THE ADVECTION TERM
 (FOR PURE FINITE-DIFFERENCE OPTION, MIXELM=0) 
 =  3.927    (WHEN MIN. R.F.=1)  AT K=   2, I=   1, J=  44


 TOTAL NUMBER OF POINT SOURCES/SINKS PRESENT IN THE FLOW MODEL =    62

 MAXIMUM STEPSIZE WHICH MEETS STABILITY CRITERION OF THE SINK & SOURCE TERM
 =  2822.    (WHEN MIN. R.F.=1)  AT K=   2, I=   1, J=   1

 MAXIMUM STEPSIZE WHICH MEETS STABILITY CRITERION OF THE DISPERSION TERM
 =  20.29    (WHEN MIN. R.F.=1)  AT K=   1, I=   1, J=  31
     1 CALLS TO GCG PACKAGE FOR TRANSPORT TIME STEP   4 IN FLOW TIME STEP 487 STRESS PERIOD   1
     4 TOTAL ITERATIONS
  MAXIMUM CONCENTRATION CHANGES FOR EACH ITERATION:
  MAX. CHANGE LAYER,ROW,COL MAX. CHANGE LAYER,ROW,COL MAX. CHANGE LAYER,ROW,COL MAX. CHANGE LAYER,ROW,COL MAX. CHANGE LAYER,ROW,COL
 ------------------------------------------------------------------------------------------------------------------------------------
   0.8797E-02 (  2,  1, 31)  0.1244E-03 (  2,  1, 46)  0.2337E-05 (  3,  1, 46)  0.4180E-07 (  3,  1, 82)


                                          ================================================
                                                         FROM TIME =   4870.0     TO    4880.0    

 
 SOLVING FOR HEAD 
 FLOW MODEL IS TRANSIENT
 FLOW MODEL CONTAINS CONSTANT-HEAD CELLS


 MAXIMUM STEPSIZE DURING WHICH ANY PARTICLE CANNOT MOVE MORE THAN ONE CELL
 =  5.847    (WHEN MIN. R.F.=1)  AT K=   4, I=   1, J=  60

 MAXIMUM STEPSIZE WHICH MEETS STABILITY CRITERION OF THE ADVECTION TERM
 (FOR PURE FINITE-DIFFERENCE OPTION, MIXELM=0) 
 =  3.933    (WHEN MIN. R.F.=1)  AT K=   2, I=   1, J=  44


 TOTAL NUMBER OF POINT SOURCES/SINKS PRESENT IN THE FLOW MODEL =    62

 MAXIMUM STEPSIZE WHICH MEETS STABILITY CRITERION OF THE SINK & SOURCE TERM
 =  4149.    (WHEN MIN. R.F.=1)  AT K=   2, I=   1, J=   1

 MAXIMUM STEPSIZE WHICH MEETS STABILITY CRITERION OF THE DISPERSION TERM
 =  20.29    (WHEN MIN. R.F.=1)  AT K=   1, I=   1, J=  31


     1 CALLS TO GCG PACKAGE FOR TRANSPORT TIME STEP   1 IN FLOW TIME STEP 488 STRESS PERIOD   1
     6 TOTAL ITERATIONS

 NO OUTPUT CONTROL FOR STRESS PERIOD    1   TIME STEP 488
 
 SOLVING FOR HEAD 
 FLOW MODEL IS TRANSIENT
 FLOW MODEL CONTAINS CONSTANT-HEAD CELLS


 MAXIMUM STEPSIZE DURING WHICH ANY PARTICLE CANNOT MOVE MORE THAN ONE CELL
 =  5.843    (WHEN MIN. R.F.=1)  AT K=   4, I=   1, J=  60

 MAXIMUM STEPSIZE WHICH MEETS STABILITY CRITERION OF THE ADVECTION TERM
 (FOR PURE FINITE-DIFFERENCE OPTION, MIXELM=0) 
 =  4.022    (WHEN MIN. R.F.=1)  AT K=   2, I=   1, J=  44


 TOTAL NUMBER OF POINT SOURCES/SINKS PRESENT IN THE FLOW MODEL =    62

 MAXIMUM STEPSIZE WHICH MEETS STABILITY CRITERION OF THE SINK & SOURCE TERM
 =  2259.    (WHEN MIN. R.F.=1)  AT K=   2, I=   1, J=   1

 MAXIMUM STEPSIZE WHICH MEETS STABILITY CRITERION OF THE DISPERSION TERM
 =  20.29    (WHEN MIN. R.F.=1)  AT K=   1, I=   1, J=  31
     1 CALLS TO GCG PACKAGE FOR TRANSPORT TIME STEP   2 IN FLOW TIME STEP 488 STRESS PERIOD   1
     6 TOTAL ITERATIONS
 
 SOLVING FOR HEAD 
 FLOW MODEL IS TRANSIENT
 FLOW MODEL CONTAINS CONSTANT-HEAD CELLS


 MAXIMUM STEPSIZE DURING WHICH ANY PARTICLE CANNOT MOVE MORE THAN ONE CELL
 =  5.841    (WHEN MIN. R.F.=1)  AT K=   4, I=   1, J=  60

 MAXIMUM STEPSIZE WHICH MEETS STABILITY CRITERION OF THE ADVECTION TERM
 (FOR PURE FINITE-DIFFERENCE OPTION, MIXELM=0) 
 =  4.250    (WHEN MIN. R.F.=1)  AT K=   2, I=   1, J=  44


 TOTAL NUMBER OF POINT SOURCES/SINKS PRESENT IN THE FLOW MODEL =    62

 MAXIMUM STEPSIZE WHICH MEETS STABILITY CRITERION OF THE SINK & SOURCE TERM
 =  2012.    (WHEN MIN. R.F.=1)  AT K=   2, I=   1, J=   1

 MAXIMUM STEPSIZE WHICH MEETS STABILITY CRITERION OF THE DISPERSION TERM
 =  20.29    (WHEN MIN. R.F.=1)  AT K=   1, I=   1, J=  31
     1 CALLS TO GCG PACKAGE FOR TRANSPORT TIME STEP   3 IN FLOW TIME STEP 488 STRESS PERIOD   1
     6 TOTAL ITERATIONS
 
 SOLVING FOR HEAD 
 FLOW MODEL IS TRANSIENT
 FLOW MODEL CONTAINS CONSTANT-HEAD CELLS


 MAXIMUM STEPSIZE DURING WHICH ANY PARTICLE CANNOT MOVE MORE THAN ONE CELL
 =  5.839    (WHEN MIN. R.F.=1)  AT K=   4, I=   1, J=  60

 MAXIMUM STEPSIZE WHICH MEETS STABILITY CRITERION OF THE ADVECTION TERM
 (FOR PURE FINITE-DIFFERENCE OPTION, MIXELM=0) 
 =  4.458    (WHEN MIN. R.F.=1)  AT K=  30, I=   1, J=  26


 TOTAL NUMBER OF POINT SOURCES/SINKS PRESENT IN THE FLOW MODEL =    62

 MAXIMUM STEPSIZE WHICH MEETS STABILITY CRITERION OF THE SINK & SOURCE TERM
 =  1981.    (WHEN MIN. R.F.=1)  AT K=   2, I=   1, J=   1

 MAXIMUM STEPSIZE WHICH MEETS STABILITY CRITERION OF THE DISPERSION TERM
 =  20.29    (WHEN MIN. R.F.=1)  AT K=   1, I=   1, J=  31
     1 CALLS TO GCG PACKAGE FOR TRANSPORT TIME STEP   4 IN FLOW TIME STEP 488 STRESS PERIOD   1
     5 TOTAL ITERATIONS
  MAXIMUM CONCENTRATION CHANGES FOR EACH ITERATION:
  MAX. CHANGE LAYER,ROW,COL MAX. CHANGE LAYER,ROW,COL MAX. CHANGE LAYER,ROW,COL MAX. CHANGE LAYER,ROW,COL MAX. CHANGE LAYER,ROW,COL
 ------------------------------------------------------------------------------------------------------------------------------------
   0.1197E-01 (  2,  1, 77)  0.2134E-03 (  2,  1, 45)  0.3944E-05 (  2,  1, 30)  0.1098E-06 (  3,  1, 42)  0.2825E-08 (  4,  1, 46)


                                          ================================================
                                                         FROM TIME =   4880.0     TO    4890.0    

 
 SOLVING FOR HEAD 
 FLOW MODEL IS TRANSIENT
 FLOW MODEL CONTAINS CONSTANT-HEAD CELLS


 MAXIMUM STEPSIZE DURING WHICH ANY PARTICLE CANNOT MOVE MORE THAN ONE CELL
 =  5.842    (WHEN MIN. R.F.=1)  AT K=   4, I=   1, J=  60

 MAXIMUM STEPSIZE WHICH MEETS STABILITY CRITERION OF THE ADVECTION TERM
 (FOR PURE FINITE-DIFFERENCE OPTION, MIXELM=0) 
 =  4.386    (WHEN MIN. R.F.=1)  AT K=  30, I=   1, J=  26


 TOTAL NUMBER OF POINT SOURCES/SINKS PRESENT IN THE FLOW MODEL =    62

 MAXIMUM STEPSIZE WHICH MEETS STABILITY CRITERION OF THE SINK & SOURCE TERM
 =  1984.    (WHEN MIN. R.F.=1)  AT K=   2, I=   1, J=   1

 MAXIMUM STEPSIZE WHICH MEETS STABILITY CRITERION OF THE DISPERSION TERM
 =  20.29    (WHEN MIN. R.F.=1)  AT K=   1, I=   1, J=  31


     1 CALLS TO GCG PACKAGE FOR TRANSPORT TIME STEP   1 IN FLOW TIME STEP 489 STRESS PERIOD   1
     6 TOTAL ITERATIONS

 NO OUTPUT CONTROL FOR STRESS PERIOD    1   TIME STEP 489
 
 SOLVING FOR HEAD 
 FLOW MODEL IS TRANSIENT
 FLOW MODEL CONTAINS CONSTANT-HEAD CELLS


 MAXIMUM STEPSIZE DURING WHICH ANY PARTICLE CANNOT MOVE MORE THAN ONE CELL
 =  5.840    (WHEN MIN. R.F.=1)  AT K=   4, I=   1, J=  60

 MAXIMUM STEPSIZE WHICH MEETS STABILITY CRITERION OF THE ADVECTION TERM
 (FOR PURE FINITE-DIFFERENCE OPTION, MIXELM=0) 
 =  4.214    (WHEN MIN. R.F.=1)  AT K=  30, I=   1, J=  26


 TOTAL NUMBER OF POINT SOURCES/SINKS PRESENT IN THE FLOW MODEL =    62

 MAXIMUM STEPSIZE WHICH MEETS STABILITY CRITERION OF THE SINK & SOURCE TERM
 =  1298.    (WHEN MIN. R.F.=1)  AT K=   2, I=   1, J=   1

 MAXIMUM STEPSIZE WHICH MEETS STABILITY CRITERION OF THE DISPERSION TERM
 =  20.29    (WHEN MIN. R.F.=1)  AT K=   1, I=   1, J=  31
     1 CALLS TO GCG PACKAGE FOR TRANSPORT TIME STEP   2 IN FLOW TIME STEP 489 STRESS PERIOD   1
     6 TOTAL ITERATIONS
 
 SOLVING FOR HEAD 
 FLOW MODEL IS TRANSIENT
 FLOW MODEL CONTAINS CONSTANT-HEAD CELLS


 MAXIMUM STEPSIZE DURING WHICH ANY PARTICLE CANNOT MOVE MORE THAN ONE CELL
 =  5.838    (WHEN MIN. R.F.=1)  AT K=   4, I=   1, J=  60

 MAXIMUM STEPSIZE WHICH MEETS STABILITY CRITERION OF THE ADVECTION TERM
 (FOR PURE FINITE-DIFFERENCE OPTION, MIXELM=0) 
 =  4.191    (WHEN MIN. R.F.=1)  AT K=  30, I=   1, J=  26


 TOTAL NUMBER OF POINT SOURCES/SINKS PRESENT IN THE FLOW MODEL =    62

 MAXIMUM STEPSIZE WHICH MEETS STABILITY CRITERION OF THE SINK & SOURCE TERM
 =  1173.    (WHEN MIN. R.F.=1)  AT K=   2, I=   1, J=   1

 MAXIMUM STEPSIZE WHICH MEETS STABILITY CRITERION OF THE DISPERSION TERM
 =  20.29    (WHEN MIN. R.F.=1)  AT K=   1, I=   1, J=  31
     1 CALLS TO GCG PACKAGE FOR TRANSPORT TIME STEP   3 IN FLOW TIME STEP 489 STRESS PERIOD   1
     6 TOTAL ITERATIONS
 
 SOLVING FOR HEAD 
 FLOW MODEL IS TRANSIENT
 FLOW MODEL CONTAINS CONSTANT-HEAD CELLS


 MAXIMUM STEPSIZE DURING WHICH ANY PARTICLE CANNOT MOVE MORE THAN ONE CELL
 =  5.586    (WHEN MIN. R.F.=1)  AT K=   4, I=   1, J=  74

 MAXIMUM STEPSIZE WHICH MEETS STABILITY CRITERION OF THE ADVECTION TERM
 (FOR PURE FINITE-DIFFERENCE OPTION, MIXELM=0) 
 =  4.119    (WHEN MIN. R.F.=1)  AT K=   2, I=   1, J=  81


 TOTAL NUMBER OF POINT SOURCES/SINKS PRESENT IN THE FLOW MODEL =    62

 MAXIMUM STEPSIZE WHICH MEETS STABILITY CRITERION OF THE SINK & SOURCE TERM
 =  1403.    (WHEN MIN. R.F.=1)  AT K=   2, I=   1, J=   1

 MAXIMUM STEPSIZE WHICH MEETS STABILITY CRITERION OF THE DISPERSION TERM
 =  20.29    (WHEN MIN. R.F.=1)  AT K=   1, I=   1, J=  31
     1 CALLS TO GCG PACKAGE FOR TRANSPORT TIME STEP   4 IN FLOW TIME STEP 489 STRESS PERIOD   1
     3 TOTAL ITERATIONS
  MAXIMUM CONCENTRATION CHANGES FOR EACH ITERATION:
  MAX. CHANGE LAYER,ROW,COL MAX. CHANGE LAYER,ROW,COL MAX. CHANGE LAYER,ROW,COL MAX. CHANGE LAYER,ROW,COL MAX. CHANGE LAYER,ROW,COL
 ------------------------------------------------------------------------------------------------------------------------------------
   0.2278E-02 (  2,  1, 83)  0.7999E-05 ( 30,  1, 27)  0.3317E-07 (  2,  1, 77)


                                          ================================================
                                                         FROM TIME =   4890.0     TO    4900.0    

 
 SOLVING FOR HEAD 
 FLOW MODEL IS TRANSIENT
 FLOW MODEL CONTAINS CONSTANT-HEAD CELLS


 MAXIMUM STEPSIZE DURING WHICH ANY PARTICLE CANNOT MOVE MORE THAN ONE CELL
 =  5.565    (WHEN MIN. R.F.=1)  AT K=   4, I=   1, J=  74

 MAXIMUM STEPSIZE WHICH MEETS STABILITY CRITERION OF THE ADVECTION TERM
 (FOR PURE FINITE-DIFFERENCE OPTION, MIXELM=0) 
 =  4.098    (WHEN MIN. R.F.=1)  AT K=   2, I=   1, J=  81


 TOTAL NUMBER OF POINT SOURCES/SINKS PRESENT IN THE FLOW MODEL =    62

 MAXIMUM STEPSIZE WHICH MEETS STABILITY CRITERION OF THE SINK & SOURCE TERM
 =  1522.    (WHEN MIN. R.F.=1)  AT K=   2, I=   1, J=   1

 MAXIMUM STEPSIZE WHICH MEETS STABILITY CRITERION OF THE DISPERSION TERM
 =  20.29    (WHEN MIN. R.F.=1)  AT K=   1, I=   1, J=  31


     1 CALLS TO GCG PACKAGE FOR TRANSPORT TIME STEP   1 IN FLOW TIME STEP 490 STRESS PERIOD   1
     6 TOTAL ITERATIONS

 NO OUTPUT CONTROL FOR STRESS PERIOD    1   TIME STEP 490
 
 SOLVING FOR HEAD 
 FLOW MODEL IS TRANSIENT
 FLOW MODEL CONTAINS CONSTANT-HEAD CELLS


 MAXIMUM STEPSIZE DURING WHICH ANY PARTICLE CANNOT MOVE MORE THAN ONE CELL
 =  5.309    (WHEN MIN. R.F.=1)  AT K=   4, I=   1, J=  74

 MAXIMUM STEPSIZE WHICH MEETS STABILITY CRITERION OF THE ADVECTION TERM
 (FOR PURE FINITE-DIFFERENCE OPTION, MIXELM=0) 
 =  3.890    (WHEN MIN. R.F.=1)  AT K=   2, I=   1, J=  81


 TOTAL NUMBER OF POINT SOURCES/SINKS PRESENT IN THE FLOW MODEL =    62

 MAXIMUM STEPSIZE WHICH MEETS STABILITY CRITERION OF THE SINK & SOURCE TERM
 =  1113.    (WHEN MIN. R.F.=1)  AT K=   2, I=   1, J=   1

 MAXIMUM STEPSIZE WHICH MEETS STABILITY CRITERION OF THE DISPERSION TERM
 =  20.29    (WHEN MIN. R.F.=1)  AT K=   1, I=   1, J=  31
     1 CALLS TO GCG PACKAGE FOR TRANSPORT TIME STEP   2 IN FLOW TIME STEP 490 STRESS PERIOD   1
     6 TOTAL ITERATIONS
 
 SOLVING FOR HEAD 
 FLOW MODEL IS TRANSIENT
 FLOW MODEL CONTAINS CONSTANT-HEAD CELLS


 MAXIMUM STEPSIZE DURING WHICH ANY PARTICLE CANNOT MOVE MORE THAN ONE CELL
 =  5.129    (WHEN MIN. R.F.=1)  AT K=   4, I=   1, J=  74

 MAXIMUM STEPSIZE WHICH MEETS STABILITY CRITERION OF THE ADVECTION TERM
 (FOR PURE FINITE-DIFFERENCE OPTION, MIXELM=0) 
 =  3.879    (WHEN MIN. R.F.=1)  AT K=   2, I=   1, J=  81


 TOTAL NUMBER OF POINT SOURCES/SINKS PRESENT IN THE FLOW MODEL =    62

 MAXIMUM STEPSIZE WHICH MEETS STABILITY CRITERION OF THE SINK & SOURCE TERM
 =  946.7    (WHEN MIN. R.F.=1)  AT K=   2, I=   1, J=   1

 MAXIMUM STEPSIZE WHICH MEETS STABILITY CRITERION OF THE DISPERSION TERM
 =  20.29    (WHEN MIN. R.F.=1)  AT K=   1, I=   1, J=  31
     1 CALLS TO GCG PACKAGE FOR TRANSPORT TIME STEP   3 IN FLOW TIME STEP 490 STRESS PERIOD   1
     6 TOTAL ITERATIONS
 
 SOLVING FOR HEAD 
 FLOW MODEL IS TRANSIENT
 FLOW MODEL CONTAINS CONSTANT-HEAD CELLS


 MAXIMUM STEPSIZE DURING WHICH ANY PARTICLE CANNOT MOVE MORE THAN ONE CELL
 =  5.023    (WHEN MIN. R.F.=1)  AT K=   4, I=   1, J=  74

 MAXIMUM STEPSIZE WHICH MEETS STABILITY CRITERION OF THE ADVECTION TERM
 (FOR PURE FINITE-DIFFERENCE OPTION, MIXELM=0) 
 =  4.145    (WHEN MIN. R.F.=1)  AT K=   2, I=   1, J=  80


 TOTAL NUMBER OF POINT SOURCES/SINKS PRESENT IN THE FLOW MODEL =    62

 MAXIMUM STEPSIZE WHICH MEETS STABILITY CRITERION OF THE SINK & SOURCE TERM
 =  893.8    (WHEN MIN. R.F.=1)  AT K=   2, I=   1, J=   1

 MAXIMUM STEPSIZE WHICH MEETS STABILITY CRITERION OF THE DISPERSION TERM
 =  20.29    (WHEN MIN. R.F.=1)  AT K=   1, I=   1, J=  31
     1 CALLS TO GCG PACKAGE FOR TRANSPORT TIME STEP   4 IN FLOW TIME STEP 490 STRESS PERIOD   1
     4 TOTAL ITERATIONS
  MAXIMUM CONCENTRATION CHANGES FOR EACH ITERATION:
  MAX. CHANGE LAYER,ROW,COL MAX. CHANGE LAYER,ROW,COL MAX. CHANGE LAYER,ROW,COL MAX. CHANGE LAYER,ROW,COL MAX. CHANGE LAYER,ROW,COL
 ------------------------------------------------------------------------------------------------------------------------------------
   0.1176E-01 (  2,  1, 82)  0.1400E-03 (  3,  1, 77)  0.3629E-05 (  3,  1, 80)  0.6620E-07 (  4,  1, 80)


                                          ================================================
                                                         FROM TIME =   4900.0     TO    4910.0    

 
 SOLVING FOR HEAD 
 FLOW MODEL IS TRANSIENT
 FLOW MODEL CONTAINS CONSTANT-HEAD CELLS


 MAXIMUM STEPSIZE DURING WHICH ANY PARTICLE CANNOT MOVE MORE THAN ONE CELL
 =  5.003    (WHEN MIN. R.F.=1)  AT K=   4, I=   1, J=  74

 MAXIMUM STEPSIZE WHICH MEETS STABILITY CRITERION OF THE ADVECTION TERM
 (FOR PURE FINITE-DIFFERENCE OPTION, MIXELM=0) 
 =  4.005    (WHEN MIN. R.F.=1)  AT K=   2, I=   1, J=  80


 TOTAL NUMBER OF POINT SOURCES/SINKS PRESENT IN THE FLOW MODEL =    62

 MAXIMUM STEPSIZE WHICH MEETS STABILITY CRITERION OF THE SINK & SOURCE TERM
 =  885.7    (WHEN MIN. R.F.=1)  AT K=   2, I=   1, J=   1

 MAXIMUM STEPSIZE WHICH MEETS STABILITY CRITERION OF THE DISPERSION TERM
 =  20.29    (WHEN MIN. R.F.=1)  AT K=   1, I=   1, J=  31


     1 CALLS TO GCG PACKAGE FOR TRANSPORT TIME STEP   1 IN FLOW TIME STEP 491 STRESS PERIOD   1
     6 TOTAL ITERATIONS

 NO OUTPUT CONTROL FOR STRESS PERIOD    1   TIME STEP 491
 
 SOLVING FOR HEAD 
 FLOW MODEL IS TRANSIENT
 FLOW MODEL CONTAINS CONSTANT-HEAD CELLS


 MAXIMUM STEPSIZE DURING WHICH ANY PARTICLE CANNOT MOVE MORE THAN ONE CELL
 =  4.983    (WHEN MIN. R.F.=1)  AT K=   4, I=   1, J=  74

 MAXIMUM STEPSIZE WHICH MEETS STABILITY CRITERION OF THE ADVECTION TERM
 (FOR PURE FINITE-DIFFERENCE OPTION, MIXELM=0) 
 =  3.688    (WHEN MIN. R.F.=1)  AT K=   2, I=   1, J=  80


 TOTAL NUMBER OF POINT SOURCES/SINKS PRESENT IN THE FLOW MODEL =    62

 MAXIMUM STEPSIZE WHICH MEETS STABILITY CRITERION OF THE SINK & SOURCE TERM
 =  690.7    (WHEN MIN. R.F.=1)  AT K=   2, I=   1, J=   1

 MAXIMUM STEPSIZE WHICH MEETS STABILITY CRITERION OF THE DISPERSION TERM
 =  20.29    (WHEN MIN. R.F.=1)  AT K=   1, I=   1, J=  31
     1 CALLS TO GCG PACKAGE FOR TRANSPORT TIME STEP   2 IN FLOW TIME STEP 491 STRESS PERIOD   1
     6 TOTAL ITERATIONS
 
 SOLVING FOR HEAD 
 FLOW MODEL IS TRANSIENT
 FLOW MODEL CONTAINS CONSTANT-HEAD CELLS


 MAXIMUM STEPSIZE DURING WHICH ANY PARTICLE CANNOT MOVE MORE THAN ONE CELL
 =  5.017    (WHEN MIN. R.F.=1)  AT K=   4, I=   1, J=  74

 MAXIMUM STEPSIZE WHICH MEETS STABILITY CRITERION OF THE ADVECTION TERM
 (FOR PURE FINITE-DIFFERENCE OPTION, MIXELM=0) 
 =  3.598    (WHEN MIN. R.F.=1)  AT K=   2, I=   1, J=  80


 TOTAL NUMBER OF POINT SOURCES/SINKS PRESENT IN THE FLOW MODEL =    62

 MAXIMUM STEPSIZE WHICH MEETS STABILITY CRITERION OF THE SINK & SOURCE TERM
 =  668.8    (WHEN MIN. R.F.=1)  AT K=   2, I=   1, J=   1

 MAXIMUM STEPSIZE WHICH MEETS STABILITY CRITERION OF THE DISPERSION TERM
 =  20.29    (WHEN MIN. R.F.=1)  AT K=   1, I=   1, J=  31
     1 CALLS TO GCG PACKAGE FOR TRANSPORT TIME STEP   3 IN FLOW TIME STEP 491 STRESS PERIOD   1
     6 TOTAL ITERATIONS
 
 SOLVING FOR HEAD 
 FLOW MODEL IS TRANSIENT
 FLOW MODEL CONTAINS CONSTANT-HEAD CELLS


 MAXIMUM STEPSIZE DURING WHICH ANY PARTICLE CANNOT MOVE MORE THAN ONE CELL
 =  5.099    (WHEN MIN. R.F.=1)  AT K=   4, I=   1, J=  74

 MAXIMUM STEPSIZE WHICH MEETS STABILITY CRITERION OF THE ADVECTION TERM
 (FOR PURE FINITE-DIFFERENCE OPTION, MIXELM=0) 
 =  3.675    (WHEN MIN. R.F.=1)  AT K=   2, I=   1, J=  80


 TOTAL NUMBER OF POINT SOURCES/SINKS PRESENT IN THE FLOW MODEL =    62

 MAXIMUM STEPSIZE WHICH MEETS STABILITY CRITERION OF THE SINK & SOURCE TERM
 =  725.7    (WHEN MIN. R.F.=1)  AT K=   2, I=   1, J=   1

 MAXIMUM STEPSIZE WHICH MEETS STABILITY CRITERION OF THE DISPERSION TERM
 =  20.29    (WHEN MIN. R.F.=1)  AT K=   1, I=   1, J=  31
     1 CALLS TO GCG PACKAGE FOR TRANSPORT TIME STEP   4 IN FLOW TIME STEP 491 STRESS PERIOD   1
     5 TOTAL ITERATIONS
  MAXIMUM CONCENTRATION CHANGES FOR EACH ITERATION:
  MAX. CHANGE LAYER,ROW,COL MAX. CHANGE LAYER,ROW,COL MAX. CHANGE LAYER,ROW,COL MAX. CHANGE LAYER,ROW,COL MAX. CHANGE LAYER,ROW,COL
 ------------------------------------------------------------------------------------------------------------------------------------
   0.1407E-01 (  2,  1, 81)  0.2065E-03 (  2,  1, 79)  0.7468E-05 (  3,  1, 79)  0.1602E-06 (  3,  1, 82)  0.3191E-08 (  3,  1, 83)


                                          ================================================
                                                         FROM TIME =   4910.0     TO    4920.0    

 
 SOLVING FOR HEAD 
 FLOW MODEL IS TRANSIENT
 FLOW MODEL CONTAINS CONSTANT-HEAD CELLS


 MAXIMUM STEPSIZE DURING WHICH ANY PARTICLE CANNOT MOVE MORE THAN ONE CELL
 =  5.120    (WHEN MIN. R.F.=1)  AT K=   5, I=   1, J=  74

 MAXIMUM STEPSIZE WHICH MEETS STABILITY CRITERION OF THE ADVECTION TERM
 (FOR PURE FINITE-DIFFERENCE OPTION, MIXELM=0) 
 =  3.790    (WHEN MIN. R.F.=1)  AT K=   2, I=   1, J=  80


 TOTAL NUMBER OF POINT SOURCES/SINKS PRESENT IN THE FLOW MODEL =    62

 MAXIMUM STEPSIZE WHICH MEETS STABILITY CRITERION OF THE SINK & SOURCE TERM
 =  819.3    (WHEN MIN. R.F.=1)  AT K=   2, I=   1, J=   1

 MAXIMUM STEPSIZE WHICH MEETS STABILITY CRITERION OF THE DISPERSION TERM
 =  20.29    (WHEN MIN. R.F.=1)  AT K=   1, I=   1, J=  31


     1 CALLS TO GCG PACKAGE FOR TRANSPORT TIME STEP   1 IN FLOW TIME STEP 492 STRESS PERIOD   1
     6 TOTAL ITERATIONS

 NO OUTPUT CONTROL FOR STRESS PERIOD    1   TIME STEP 492
 
 SOLVING FOR HEAD 
 FLOW MODEL IS TRANSIENT
 FLOW MODEL CONTAINS CONSTANT-HEAD CELLS


 MAXIMUM STEPSIZE DURING WHICH ANY PARTICLE CANNOT MOVE MORE THAN ONE CELL
 =  5.192    (WHEN MIN. R.F.=1)  AT K=   5, I=   1, J=  74

 MAXIMUM STEPSIZE WHICH MEETS STABILITY CRITERION OF THE ADVECTION TERM
 (FOR PURE FINITE-DIFFERENCE OPTION, MIXELM=0) 
 =  3.844    (WHEN MIN. R.F.=1)  AT K=   2, I=   1, J=  79


 TOTAL NUMBER OF POINT SOURCES/SINKS PRESENT IN THE FLOW MODEL =    62

 MAXIMUM STEPSIZE WHICH MEETS STABILITY CRITERION OF THE SINK & SOURCE TERM
 =  671.7    (WHEN MIN. R.F.=1)  AT K=   2, I=   1, J=   1

 MAXIMUM STEPSIZE WHICH MEETS STABILITY CRITERION OF THE DISPERSION TERM
 =  20.29    (WHEN MIN. R.F.=1)  AT K=   1, I=   1, J=  31
     1 CALLS TO GCG PACKAGE FOR TRANSPORT TIME STEP   2 IN FLOW TIME STEP 492 STRESS PERIOD   1
     6 TOTAL ITERATIONS
 
 SOLVING FOR HEAD 
 FLOW MODEL IS TRANSIENT
 FLOW MODEL CONTAINS CONSTANT-HEAD CELLS


 MAXIMUM STEPSIZE DURING WHICH ANY PARTICLE CANNOT MOVE MORE THAN ONE CELL
 =  5.306    (WHEN MIN. R.F.=1)  AT K=   5, I=   1, J=  74

 MAXIMUM STEPSIZE WHICH MEETS STABILITY CRITERION OF THE ADVECTION TERM
 (FOR PURE FINITE-DIFFERENCE OPTION, MIXELM=0) 
 =  3.624    (WHEN MIN. R.F.=1)  AT K=   2, I=   1, J=  79


 TOTAL NUMBER OF POINT SOURCES/SINKS PRESENT IN THE FLOW MODEL =    62

 MAXIMUM STEPSIZE WHICH MEETS STABILITY CRITERION OF THE SINK & SOURCE TERM
 =  632.2    (WHEN MIN. R.F.=1)  AT K=   2, I=   1, J=   1

 MAXIMUM STEPSIZE WHICH MEETS STABILITY CRITERION OF THE DISPERSION TERM
 =  20.29    (WHEN MIN. R.F.=1)  AT K=   1, I=   1, J=  31
     1 CALLS TO GCG PACKAGE FOR TRANSPORT TIME STEP   3 IN FLOW TIME STEP 492 STRESS PERIOD   1
     6 TOTAL ITERATIONS
 
 SOLVING FOR HEAD 
 FLOW MODEL IS TRANSIENT
 FLOW MODEL CONTAINS CONSTANT-HEAD CELLS


 MAXIMUM STEPSIZE DURING WHICH ANY PARTICLE CANNOT MOVE MORE THAN ONE CELL
 =  5.434    (WHEN MIN. R.F.=1)  AT K=   4, I=   1, J=  47

 MAXIMUM STEPSIZE WHICH MEETS STABILITY CRITERION OF THE ADVECTION TERM
 (FOR PURE FINITE-DIFFERENCE OPTION, MIXELM=0) 
 =  3.554    (WHEN MIN. R.F.=1)  AT K=   2, I=   1, J=  79


 TOTAL NUMBER OF POINT SOURCES/SINKS PRESENT IN THE FLOW MODEL =    62

 MAXIMUM STEPSIZE WHICH MEETS STABILITY CRITERION OF THE SINK & SOURCE TERM
 =  618.6    (WHEN MIN. R.F.=1)  AT K=   2, I=   1, J=   1

 MAXIMUM STEPSIZE WHICH MEETS STABILITY CRITERION OF THE DISPERSION TERM
 =  20.29    (WHEN MIN. R.F.=1)  AT K=   1, I=   1, J=  31
     1 CALLS TO GCG PACKAGE FOR TRANSPORT TIME STEP   4 IN FLOW TIME STEP 492 STRESS PERIOD   1
     5 TOTAL ITERATIONS
  MAXIMUM CONCENTRATION CHANGES FOR EACH ITERATION:
  MAX. CHANGE LAYER,ROW,COL MAX. CHANGE LAYER,ROW,COL MAX. CHANGE LAYER,ROW,COL MAX. CHANGE LAYER,ROW,COL MAX. CHANGE LAYER,ROW,COL
 ------------------------------------------------------------------------------------------------------------------------------------
   0.1812E-01 (  2,  1, 80)  0.4435E-03 (  2,  1, 80)  0.1430E-04 (  2,  1, 76)  0.7839E-06 (  3,  1, 76)  0.2151E-07 (  4,  1, 76)


                                          ================================================
                                                         FROM TIME =   4920.0     TO    4930.0    

 
 SOLVING FOR HEAD 
 FLOW MODEL IS TRANSIENT
 FLOW MODEL CONTAINS CONSTANT-HEAD CELLS


 MAXIMUM STEPSIZE DURING WHICH ANY PARTICLE CANNOT MOVE MORE THAN ONE CELL
 =  5.407    (WHEN MIN. R.F.=1)  AT K=   4, I=   1, J=  47

 MAXIMUM STEPSIZE WHICH MEETS STABILITY CRITERION OF THE ADVECTION TERM
 (FOR PURE FINITE-DIFFERENCE OPTION, MIXELM=0) 
 =  3.582    (WHEN MIN. R.F.=1)  AT K=   2, I=   1, J=  79


 TOTAL NUMBER OF POINT SOURCES/SINKS PRESENT IN THE FLOW MODEL =    62

 MAXIMUM STEPSIZE WHICH MEETS STABILITY CRITERION OF THE SINK & SOURCE TERM
 =  647.9    (WHEN MIN. R.F.=1)  AT K=   2, I=   1, J=   1

 MAXIMUM STEPSIZE WHICH MEETS STABILITY CRITERION OF THE DISPERSION TERM
 =  20.29    (WHEN MIN. R.F.=1)  AT K=   1, I=   1, J=  31


     1 CALLS TO GCG PACKAGE FOR TRANSPORT TIME STEP   1 IN FLOW TIME STEP 493 STRESS PERIOD   1
     6 TOTAL ITERATIONS

 NO OUTPUT CONTROL FOR STRESS PERIOD    1   TIME STEP 493
 
 SOLVING FOR HEAD 
 FLOW MODEL IS TRANSIENT
 FLOW MODEL CONTAINS CONSTANT-HEAD CELLS


 MAXIMUM STEPSIZE DURING WHICH ANY PARTICLE CANNOT MOVE MORE THAN ONE CELL
 =  5.424    (WHEN MIN. R.F.=1)  AT K=   4, I=   1, J=  47

 MAXIMUM STEPSIZE WHICH MEETS STABILITY CRITERION OF THE ADVECTION TERM
 (FOR PURE FINITE-DIFFERENCE OPTION, MIXELM=0) 
 =  3.726    (WHEN MIN. R.F.=1)  AT K=   2, I=   1, J=  79


 TOTAL NUMBER OF POINT SOURCES/SINKS PRESENT IN THE FLOW MODEL =    62

 MAXIMUM STEPSIZE WHICH MEETS STABILITY CRITERION OF THE SINK & SOURCE TERM
 =  605.9    (WHEN MIN. R.F.=1)  AT K=   2, I=   1, J=   1

 MAXIMUM STEPSIZE WHICH MEETS STABILITY CRITERION OF THE DISPERSION TERM
 =  20.29    (WHEN MIN. R.F.=1)  AT K=   1, I=   1, J=  31
     1 CALLS TO GCG PACKAGE FOR TRANSPORT TIME STEP   2 IN FLOW TIME STEP 493 STRESS PERIOD   1
     6 TOTAL ITERATIONS
 
 SOLVING FOR HEAD 
 FLOW MODEL IS TRANSIENT
 FLOW MODEL CONTAINS CONSTANT-HEAD CELLS


 MAXIMUM STEPSIZE DURING WHICH ANY PARTICLE CANNOT MOVE MORE THAN ONE CELL
 =  5.521    (WHEN MIN. R.F.=1)  AT K=   4, I=   1, J=  47

 MAXIMUM STEPSIZE WHICH MEETS STABILITY CRITERION OF THE ADVECTION TERM
 (FOR PURE FINITE-DIFFERENCE OPTION, MIXELM=0) 
 =  3.795    (WHEN MIN. R.F.=1)  AT K=   2, I=   1, J=  41


 TOTAL NUMBER OF POINT SOURCES/SINKS PRESENT IN THE FLOW MODEL =    62

 MAXIMUM STEPSIZE WHICH MEETS STABILITY CRITERION OF THE SINK & SOURCE TERM
 =  627.3    (WHEN MIN. R.F.=1)  AT K=   2, I=   1, J=   1

 MAXIMUM STEPSIZE WHICH MEETS STABILITY CRITERION OF THE DISPERSION TERM
 =  20.29    (WHEN MIN. R.F.=1)  AT K=   1, I=   1, J=  31
     1 CALLS TO GCG PACKAGE FOR TRANSPORT TIME STEP   3 IN FLOW TIME STEP 493 STRESS PERIOD   1
     6 TOTAL ITERATIONS
 
 SOLVING FOR HEAD 
 FLOW MODEL IS TRANSIENT
 FLOW MODEL CONTAINS CONSTANT-HEAD CELLS


 MAXIMUM STEPSIZE DURING WHICH ANY PARTICLE CANNOT MOVE MORE THAN ONE CELL
 =  5.563    (WHEN MIN. R.F.=1)  AT K=   5, I=   1, J=  47

 MAXIMUM STEPSIZE WHICH MEETS STABILITY CRITERION OF THE ADVECTION TERM
 (FOR PURE FINITE-DIFFERENCE OPTION, MIXELM=0) 
 =  3.771    (WHEN MIN. R.F.=1)  AT K=   2, I=   1, J=  78


 TOTAL NUMBER OF POINT SOURCES/SINKS PRESENT IN THE FLOW MODEL =    62

 MAXIMUM STEPSIZE WHICH MEETS STABILITY CRITERION OF THE SINK & SOURCE TERM
 =  670.4    (WHEN MIN. R.F.=1)  AT K=   2, I=   1, J=   1

 MAXIMUM STEPSIZE WHICH MEETS STABILITY CRITERION OF THE DISPERSION TERM
 =  20.29    (WHEN MIN. R.F.=1)  AT K=   1, I=   1, J=  31
     1 CALLS TO GCG PACKAGE FOR TRANSPORT TIME STEP   4 IN FLOW TIME STEP 493 STRESS PERIOD   1
     5 TOTAL ITERATIONS
  MAXIMUM CONCENTRATION CHANGES FOR EACH ITERATION:
  MAX. CHANGE LAYER,ROW,COL MAX. CHANGE LAYER,ROW,COL MAX. CHANGE LAYER,ROW,COL MAX. CHANGE LAYER,ROW,COL MAX. CHANGE LAYER,ROW,COL
 ------------------------------------------------------------------------------------------------------------------------------------
   0.1988E-01 (  2,  1, 40)  0.6575E-03 (  2,  1, 78)  0.2687E-04 (  3,  1, 42)  0.9228E-06 (  4,  1, 42)  0.3049E-07 (  4,  1, 43)


                                          ================================================
                                                         FROM TIME =   4930.0     TO    4940.0    

 
 SOLVING FOR HEAD 
 FLOW MODEL IS TRANSIENT
 FLOW MODEL CONTAINS CONSTANT-HEAD CELLS


 MAXIMUM STEPSIZE DURING WHICH ANY PARTICLE CANNOT MOVE MORE THAN ONE CELL
 =  5.637    (WHEN MIN. R.F.=1)  AT K=   5, I=   1, J=  47

 MAXIMUM STEPSIZE WHICH MEETS STABILITY CRITERION OF THE ADVECTION TERM
 (FOR PURE FINITE-DIFFERENCE OPTION, MIXELM=0) 
 =  3.682    (WHEN MIN. R.F.=1)  AT K=   2, I=   1, J=  78


 TOTAL NUMBER OF POINT SOURCES/SINKS PRESENT IN THE FLOW MODEL =    62

 MAXIMUM STEPSIZE WHICH MEETS STABILITY CRITERION OF THE SINK & SOURCE TERM
 =  709.8    (WHEN MIN. R.F.=1)  AT K=   2, I=   1, J=   1

 MAXIMUM STEPSIZE WHICH MEETS STABILITY CRITERION OF THE DISPERSION TERM
 =  20.29    (WHEN MIN. R.F.=1)  AT K=   1, I=   1, J=  31


     1 CALLS TO GCG PACKAGE FOR TRANSPORT TIME STEP   1 IN FLOW TIME STEP 494 STRESS PERIOD   1
     6 TOTAL ITERATIONS

 NO OUTPUT CONTROL FOR STRESS PERIOD    1   TIME STEP 494
 
 SOLVING FOR HEAD 
 FLOW MODEL IS TRANSIENT
 FLOW MODEL CONTAINS CONSTANT-HEAD CELLS


 MAXIMUM STEPSIZE DURING WHICH ANY PARTICLE CANNOT MOVE MORE THAN ONE CELL
 =  5.790    (WHEN MIN. R.F.=1)  AT K=   5, I=   1, J=  47

 MAXIMUM STEPSIZE WHICH MEETS STABILITY CRITERION OF THE ADVECTION TERM
 (FOR PURE FINITE-DIFFERENCE OPTION, MIXELM=0) 
 =  3.643    (WHEN MIN. R.F.=1)  AT K=   2, I=   1, J=  78


 TOTAL NUMBER OF POINT SOURCES/SINKS PRESENT IN THE FLOW MODEL =    62

 MAXIMUM STEPSIZE WHICH MEETS STABILITY CRITERION OF THE SINK & SOURCE TERM
 =  644.8    (WHEN MIN. R.F.=1)  AT K=   2, I=   1, J=   1

 MAXIMUM STEPSIZE WHICH MEETS STABILITY CRITERION OF THE DISPERSION TERM
 =  20.29    (WHEN MIN. R.F.=1)  AT K=   1, I=   1, J=  31
     1 CALLS TO GCG PACKAGE FOR TRANSPORT TIME STEP   2 IN FLOW TIME STEP 494 STRESS PERIOD   1
     6 TOTAL ITERATIONS
 
 SOLVING FOR HEAD 
 FLOW MODEL IS TRANSIENT
 FLOW MODEL CONTAINS CONSTANT-HEAD CELLS


 MAXIMUM STEPSIZE DURING WHICH ANY PARTICLE CANNOT MOVE MORE THAN ONE CELL
 =  5.877    (WHEN MIN. R.F.=1)  AT K=   6, I=   1, J=  47

 MAXIMUM STEPSIZE WHICH MEETS STABILITY CRITERION OF THE ADVECTION TERM
 (FOR PURE FINITE-DIFFERENCE OPTION, MIXELM=0) 
 =  3.721    (WHEN MIN. R.F.=1)  AT K=   2, I=   1, J=  78


 TOTAL NUMBER OF POINT SOURCES/SINKS PRESENT IN THE FLOW MODEL =    62

 MAXIMUM STEPSIZE WHICH MEETS STABILITY CRITERION OF THE SINK & SOURCE TERM
 =  651.2    (WHEN MIN. R.F.=1)  AT K=   2, I=   1, J=   1

 MAXIMUM STEPSIZE WHICH MEETS STABILITY CRITERION OF THE DISPERSION TERM
 =  20.29    (WHEN MIN. R.F.=1)  AT K=   1, I=   1, J=  31
     1 CALLS TO GCG PACKAGE FOR TRANSPORT TIME STEP   3 IN FLOW TIME STEP 494 STRESS PERIOD   1
     6 TOTAL ITERATIONS
 
 SOLVING FOR HEAD 
 FLOW MODEL IS TRANSIENT
 FLOW MODEL CONTAINS CONSTANT-HEAD CELLS


 MAXIMUM STEPSIZE DURING WHICH ANY PARTICLE CANNOT MOVE MORE THAN ONE CELL
 =  5.942    (WHEN MIN. R.F.=1)  AT K=   4, I=   1, J=  60

 MAXIMUM STEPSIZE WHICH MEETS STABILITY CRITERION OF THE ADVECTION TERM
 (FOR PURE FINITE-DIFFERENCE OPTION, MIXELM=0) 
 =  3.727    (WHEN MIN. R.F.=1)  AT K=   2, I=   1, J=  42


 TOTAL NUMBER OF POINT SOURCES/SINKS PRESENT IN THE FLOW MODEL =    62

 MAXIMUM STEPSIZE WHICH MEETS STABILITY CRITERION OF THE SINK & SOURCE TERM
 =  656.7    (WHEN MIN. R.F.=1)  AT K=   2, I=   1, J=   1

 MAXIMUM STEPSIZE WHICH MEETS STABILITY CRITERION OF THE DISPERSION TERM
 =  20.29    (WHEN MIN. R.F.=1)  AT K=   1, I=   1, J=  31
     1 CALLS TO GCG PACKAGE FOR TRANSPORT TIME STEP   4 IN FLOW TIME STEP 494 STRESS PERIOD   1
     5 TOTAL ITERATIONS
  MAXIMUM CONCENTRATION CHANGES FOR EACH ITERATION:
  MAX. CHANGE LAYER,ROW,COL MAX. CHANGE LAYER,ROW,COL MAX. CHANGE LAYER,ROW,COL MAX. CHANGE LAYER,ROW,COL MAX. CHANGE LAYER,ROW,COL
 ------------------------------------------------------------------------------------------------------------------------------------
   0.2099E-01 (  2,  1, 79)  0.5766E-03 (  2,  1, 77)  0.1940E-04 (  3,  1, 77)  0.9940E-06 (  3,  1, 45)  0.2967E-07 (  4,  1, 45)


                                          ================================================
                                                         FROM TIME =   4940.0     TO    4950.0    

 
 SOLVING FOR HEAD 
 FLOW MODEL IS TRANSIENT
 FLOW MODEL CONTAINS CONSTANT-HEAD CELLS


 MAXIMUM STEPSIZE DURING WHICH ANY PARTICLE CANNOT MOVE MORE THAN ONE CELL
 =  5.948    (WHEN MIN. R.F.=1)  AT K=   4, I=   1, J=  60

 MAXIMUM STEPSIZE WHICH MEETS STABILITY CRITERION OF THE ADVECTION TERM
 (FOR PURE FINITE-DIFFERENCE OPTION, MIXELM=0) 
 =  3.756    (WHEN MIN. R.F.=1)  AT K=   2, I=   1, J=  42


 TOTAL NUMBER OF POINT SOURCES/SINKS PRESENT IN THE FLOW MODEL =    62

 MAXIMUM STEPSIZE WHICH MEETS STABILITY CRITERION OF THE SINK & SOURCE TERM
 =  754.1    (WHEN MIN. R.F.=1)  AT K=   2, I=   1, J=   1

 MAXIMUM STEPSIZE WHICH MEETS STABILITY CRITERION OF THE DISPERSION TERM
 =  20.29    (WHEN MIN. R.F.=1)  AT K=   1, I=   1, J=  31


     1 CALLS TO GCG PACKAGE FOR TRANSPORT TIME STEP   1 IN FLOW TIME STEP 495 STRESS PERIOD   1
     6 TOTAL ITERATIONS

 NO OUTPUT CONTROL FOR STRESS PERIOD    1   TIME STEP 495
 
 SOLVING FOR HEAD 
 FLOW MODEL IS TRANSIENT
 FLOW MODEL CONTAINS CONSTANT-HEAD CELLS


 MAXIMUM STEPSIZE DURING WHICH ANY PARTICLE CANNOT MOVE MORE THAN ONE CELL
 =  5.952    (WHEN MIN. R.F.=1)  AT K=   4, I=   1, J=  60

 MAXIMUM STEPSIZE WHICH MEETS STABILITY CRITERION OF THE ADVECTION TERM
 (FOR PURE FINITE-DIFFERENCE OPTION, MIXELM=0) 
 =  3.927    (WHEN MIN. R.F.=1)  AT K=   2, I=   1, J=  42


 TOTAL NUMBER OF POINT SOURCES/SINKS PRESENT IN THE FLOW MODEL =    62

 MAXIMUM STEPSIZE WHICH MEETS STABILITY CRITERION OF THE SINK & SOURCE TERM
 =  703.2    (WHEN MIN. R.F.=1)  AT K=   2, I=   1, J=   1

 MAXIMUM STEPSIZE WHICH MEETS STABILITY CRITERION OF THE DISPERSION TERM
 =  20.29    (WHEN MIN. R.F.=1)  AT K=   1, I=   1, J=  31
     1 CALLS TO GCG PACKAGE FOR TRANSPORT TIME STEP   2 IN FLOW TIME STEP 495 STRESS PERIOD   1
     6 TOTAL ITERATIONS
 
 SOLVING FOR HEAD 
 FLOW MODEL IS TRANSIENT
 FLOW MODEL CONTAINS CONSTANT-HEAD CELLS


 MAXIMUM STEPSIZE DURING WHICH ANY PARTICLE CANNOT MOVE MORE THAN ONE CELL
 =  5.955    (WHEN MIN. R.F.=1)  AT K=   4, I=   1, J=  60

 MAXIMUM STEPSIZE WHICH MEETS STABILITY CRITERION OF THE ADVECTION TERM
 (FOR PURE FINITE-DIFFERENCE OPTION, MIXELM=0) 
 =  3.854    (WHEN MIN. R.F.=1)  AT K=   2, I=   1, J=  77


 TOTAL NUMBER OF POINT SOURCES/SINKS PRESENT IN THE FLOW MODEL =    62

 MAXIMUM STEPSIZE WHICH MEETS STABILITY CRITERION OF THE SINK & SOURCE TERM
 =  707.4    (WHEN MIN. R.F.=1)  AT K=   2, I=   1, J=   1

 MAXIMUM STEPSIZE WHICH MEETS STABILITY CRITERION OF THE DISPERSION TERM
 =  20.29    (WHEN MIN. R.F.=1)  AT K=   1, I=   1, J=  31
     1 CALLS TO GCG PACKAGE FOR TRANSPORT TIME STEP   3 IN FLOW TIME STEP 495 STRESS PERIOD   1
     6 TOTAL ITERATIONS
 
 SOLVING FOR HEAD 
 FLOW MODEL IS TRANSIENT
 FLOW MODEL CONTAINS CONSTANT-HEAD CELLS


 MAXIMUM STEPSIZE DURING WHICH ANY PARTICLE CANNOT MOVE MORE THAN ONE CELL
 =  5.959    (WHEN MIN. R.F.=1)  AT K=   4, I=   1, J=  60

 MAXIMUM STEPSIZE WHICH MEETS STABILITY CRITERION OF THE ADVECTION TERM
 (FOR PURE FINITE-DIFFERENCE OPTION, MIXELM=0) 
 =  3.824    (WHEN MIN. R.F.=1)  AT K=   2, I=   1, J=  77


 TOTAL NUMBER OF POINT SOURCES/SINKS PRESENT IN THE FLOW MODEL =    62

 MAXIMUM STEPSIZE WHICH MEETS STABILITY CRITERION OF THE SINK & SOURCE TERM
 =  724.6    (WHEN MIN. R.F.=1)  AT K=   2, I=   1, J=   1

 MAXIMUM STEPSIZE WHICH MEETS STABILITY CRITERION OF THE DISPERSION TERM
 =  20.29    (WHEN MIN. R.F.=1)  AT K=   1, I=   1, J=  31
     1 CALLS TO GCG PACKAGE FOR TRANSPORT TIME STEP   4 IN FLOW TIME STEP 495 STRESS PERIOD   1
     5 TOTAL ITERATIONS
  MAXIMUM CONCENTRATION CHANGES FOR EACH ITERATION:
  MAX. CHANGE LAYER,ROW,COL MAX. CHANGE LAYER,ROW,COL MAX. CHANGE LAYER,ROW,COL MAX. CHANGE LAYER,ROW,COL MAX. CHANGE LAYER,ROW,COL
 ------------------------------------------------------------------------------------------------------------------------------------
   0.1633E-01 (  2,  1, 78)  0.3974E-03 (  2,  1, 75)  0.1109E-04 (  2,  1, 79)  0.3699E-06 (  3,  1, 79)  0.1116E-07 (  4,  1, 78)


                                          ================================================
                                                         FROM TIME =   4950.0     TO    4960.0    

 
 SOLVING FOR HEAD 
 FLOW MODEL IS TRANSIENT
 FLOW MODEL CONTAINS CONSTANT-HEAD CELLS


 MAXIMUM STEPSIZE DURING WHICH ANY PARTICLE CANNOT MOVE MORE THAN ONE CELL
 =  5.964    (WHEN MIN. R.F.=1)  AT K=   4, I=   1, J=  60

 MAXIMUM STEPSIZE WHICH MEETS STABILITY CRITERION OF THE ADVECTION TERM
 (FOR PURE FINITE-DIFFERENCE OPTION, MIXELM=0) 
 =  3.787    (WHEN MIN. R.F.=1)  AT K=   2, I=   1, J=  43


 TOTAL NUMBER OF POINT SOURCES/SINKS PRESENT IN THE FLOW MODEL =    62

 MAXIMUM STEPSIZE WHICH MEETS STABILITY CRITERION OF THE SINK & SOURCE TERM
 =  780.2    (WHEN MIN. R.F.=1)  AT K=   2, I=   1, J=   1

 MAXIMUM STEPSIZE WHICH MEETS STABILITY CRITERION OF THE DISPERSION TERM
 =  20.29    (WHEN MIN. R.F.=1)  AT K=   1, I=   1, J=  31


     1 CALLS TO GCG PACKAGE FOR TRANSPORT TIME STEP   1 IN FLOW TIME STEP 496 STRESS PERIOD   1
     6 TOTAL ITERATIONS

 NO OUTPUT CONTROL FOR STRESS PERIOD    1   TIME STEP 496
 
 SOLVING FOR HEAD 
 FLOW MODEL IS TRANSIENT
 FLOW MODEL CONTAINS CONSTANT-HEAD CELLS


 MAXIMUM STEPSIZE DURING WHICH ANY PARTICLE CANNOT MOVE MORE THAN ONE CELL
 =  5.967    (WHEN MIN. R.F.=1)  AT K=   4, I=   1, J=  60

 MAXIMUM STEPSIZE WHICH MEETS STABILITY CRITERION OF THE ADVECTION TERM
 (FOR PURE FINITE-DIFFERENCE OPTION, MIXELM=0) 
 =  3.783    (WHEN MIN. R.F.=1)  AT K=   2, I=   1, J=  43


 TOTAL NUMBER OF POINT SOURCES/SINKS PRESENT IN THE FLOW MODEL =    62

 MAXIMUM STEPSIZE WHICH MEETS STABILITY CRITERION OF THE SINK & SOURCE TERM
 =  713.3    (WHEN MIN. R.F.=1)  AT K=   2, I=   1, J=   1

 MAXIMUM STEPSIZE WHICH MEETS STABILITY CRITERION OF THE DISPERSION TERM
 =  20.29    (WHEN MIN. R.F.=1)  AT K=   1, I=   1, J=  31
     1 CALLS TO GCG PACKAGE FOR TRANSPORT TIME STEP   2 IN FLOW TIME STEP 496 STRESS PERIOD   1
     6 TOTAL ITERATIONS
 
 SOLVING FOR HEAD 
 FLOW MODEL IS TRANSIENT
 FLOW MODEL CONTAINS CONSTANT-HEAD CELLS


 MAXIMUM STEPSIZE DURING WHICH ANY PARTICLE CANNOT MOVE MORE THAN ONE CELL
 =  5.970    (WHEN MIN. R.F.=1)  AT K=   4, I=   1, J=  60

 MAXIMUM STEPSIZE WHICH MEETS STABILITY CRITERION OF THE ADVECTION TERM
 (FOR PURE FINITE-DIFFERENCE OPTION, MIXELM=0) 
 =  3.882    (WHEN MIN. R.F.=1)  AT K=   2, I=   1, J=  43


 TOTAL NUMBER OF POINT SOURCES/SINKS PRESENT IN THE FLOW MODEL =    62

 MAXIMUM STEPSIZE WHICH MEETS STABILITY CRITERION OF THE SINK & SOURCE TERM
 =  704.5    (WHEN MIN. R.F.=1)  AT K=   2, I=   1, J=   1

 MAXIMUM STEPSIZE WHICH MEETS STABILITY CRITERION OF THE DISPERSION TERM
 =  20.29    (WHEN MIN. R.F.=1)  AT K=   1, I=   1, J=  31
     1 CALLS TO GCG PACKAGE FOR TRANSPORT TIME STEP   3 IN FLOW TIME STEP 496 STRESS PERIOD   1
     6 TOTAL ITERATIONS
 
 SOLVING FOR HEAD 
 FLOW MODEL IS TRANSIENT
 FLOW MODEL CONTAINS CONSTANT-HEAD CELLS


 MAXIMUM STEPSIZE DURING WHICH ANY PARTICLE CANNOT MOVE MORE THAN ONE CELL
 =  5.973    (WHEN MIN. R.F.=1)  AT K=   4, I=   1, J=  60

 MAXIMUM STEPSIZE WHICH MEETS STABILITY CRITERION OF THE ADVECTION TERM
 (FOR PURE FINITE-DIFFERENCE OPTION, MIXELM=0) 
 =  4.154    (WHEN MIN. R.F.=1)  AT K=   2, I=   1, J=  43


 TOTAL NUMBER OF POINT SOURCES/SINKS PRESENT IN THE FLOW MODEL =    62

 MAXIMUM STEPSIZE WHICH MEETS STABILITY CRITERION OF THE SINK & SOURCE TERM
 =  729.4    (WHEN MIN. R.F.=1)  AT K=   2, I=   1, J=   1

 MAXIMUM STEPSIZE WHICH MEETS STABILITY CRITERION OF THE DISPERSION TERM
 =  20.29    (WHEN MIN. R.F.=1)  AT K=   1, I=   1, J=  31
     1 CALLS TO GCG PACKAGE FOR TRANSPORT TIME STEP   4 IN FLOW TIME STEP 496 STRESS PERIOD   1
     5 TOTAL ITERATIONS
  MAXIMUM CONCENTRATION CHANGES FOR EACH ITERATION:
  MAX. CHANGE LAYER,ROW,COL MAX. CHANGE LAYER,ROW,COL MAX. CHANGE LAYER,ROW,COL MAX. CHANGE LAYER,ROW,COL MAX. CHANGE LAYER,ROW,COL
 ------------------------------------------------------------------------------------------------------------------------------------
   0.1629E-01 (  2,  1, 42)  0.4286E-03 (  2,  1, 76)  0.1016E-04 (  3,  1, 44)  0.3521E-06 (  3,  1, 75)  0.1149E-07 (  4,  1, 75)


                                          ================================================
                                                         FROM TIME =   4960.0     TO    4970.0    

 
 SOLVING FOR HEAD 
 FLOW MODEL IS TRANSIENT
 FLOW MODEL CONTAINS CONSTANT-HEAD CELLS


 MAXIMUM STEPSIZE DURING WHICH ANY PARTICLE CANNOT MOVE MORE THAN ONE CELL
 =  5.978    (WHEN MIN. R.F.=1)  AT K=   4, I=   1, J=  60

 MAXIMUM STEPSIZE WHICH MEETS STABILITY CRITERION OF THE ADVECTION TERM
 (FOR PURE FINITE-DIFFERENCE OPTION, MIXELM=0) 
 =  4.313    (WHEN MIN. R.F.=1)  AT K=   2, I=   1, J=  44


 TOTAL NUMBER OF POINT SOURCES/SINKS PRESENT IN THE FLOW MODEL =    62

 MAXIMUM STEPSIZE WHICH MEETS STABILITY CRITERION OF THE SINK & SOURCE TERM
 =  765.7    (WHEN MIN. R.F.=1)  AT K=   2, I=   1, J=   1

 MAXIMUM STEPSIZE WHICH MEETS STABILITY CRITERION OF THE DISPERSION TERM
 =  20.29    (WHEN MIN. R.F.=1)  AT K=   1, I=   1, J=  31


     1 CALLS TO GCG PACKAGE FOR TRANSPORT TIME STEP   1 IN FLOW TIME STEP 497 STRESS PERIOD   1
     6 TOTAL ITERATIONS

 NO OUTPUT CONTROL FOR STRESS PERIOD    1   TIME STEP 497
 
 SOLVING FOR HEAD 
 FLOW MODEL IS TRANSIENT
 FLOW MODEL CONTAINS CONSTANT-HEAD CELLS


 MAXIMUM STEPSIZE DURING WHICH ANY PARTICLE CANNOT MOVE MORE THAN ONE CELL
 =  5.979    (WHEN MIN. R.F.=1)  AT K=   4, I=   1, J=  60

 MAXIMUM STEPSIZE WHICH MEETS STABILITY CRITERION OF THE ADVECTION TERM
 (FOR PURE FINITE-DIFFERENCE OPTION, MIXELM=0) 
 =  4.025    (WHEN MIN. R.F.=1)  AT K=   2, I=   1, J=  44


 TOTAL NUMBER OF POINT SOURCES/SINKS PRESENT IN THE FLOW MODEL =    62

 MAXIMUM STEPSIZE WHICH MEETS STABILITY CRITERION OF THE SINK & SOURCE TERM
 =  677.0    (WHEN MIN. R.F.=1)  AT K=   2, I=   1, J=   1

 MAXIMUM STEPSIZE WHICH MEETS STABILITY CRITERION OF THE DISPERSION TERM
 =  20.29    (WHEN MIN. R.F.=1)  AT K=   1, I=   1, J=  31
     1 CALLS TO GCG PACKAGE FOR TRANSPORT TIME STEP   2 IN FLOW TIME STEP 497 STRESS PERIOD   1
     6 TOTAL ITERATIONS
 
 SOLVING FOR HEAD 
 FLOW MODEL IS TRANSIENT
 FLOW MODEL CONTAINS CONSTANT-HEAD CELLS


 MAXIMUM STEPSIZE DURING WHICH ANY PARTICLE CANNOT MOVE MORE THAN ONE CELL
 =  5.980    (WHEN MIN. R.F.=1)  AT K=   4, I=   1, J=  60

 MAXIMUM STEPSIZE WHICH MEETS STABILITY CRITERION OF THE ADVECTION TERM
 (FOR PURE FINITE-DIFFERENCE OPTION, MIXELM=0) 
 =  3.924    (WHEN MIN. R.F.=1)  AT K=   2, I=   1, J=  44


 TOTAL NUMBER OF POINT SOURCES/SINKS PRESENT IN THE FLOW MODEL =    62

 MAXIMUM STEPSIZE WHICH MEETS STABILITY CRITERION OF THE SINK & SOURCE TERM
 =  665.2    (WHEN MIN. R.F.=1)  AT K=   2, I=   1, J=   1

 MAXIMUM STEPSIZE WHICH MEETS STABILITY CRITERION OF THE DISPERSION TERM
 =  20.29    (WHEN MIN. R.F.=1)  AT K=   1, I=   1, J=  31
     1 CALLS TO GCG PACKAGE FOR TRANSPORT TIME STEP   3 IN FLOW TIME STEP 497 STRESS PERIOD   1
     6 TOTAL ITERATIONS
 
 SOLVING FOR HEAD 
 FLOW MODEL IS TRANSIENT
 FLOW MODEL CONTAINS CONSTANT-HEAD CELLS


 MAXIMUM STEPSIZE DURING WHICH ANY PARTICLE CANNOT MOVE MORE THAN ONE CELL
 =  5.984    (WHEN MIN. R.F.=1)  AT K=   4, I=   1, J=  60

 MAXIMUM STEPSIZE WHICH MEETS STABILITY CRITERION OF THE ADVECTION TERM
 (FOR PURE FINITE-DIFFERENCE OPTION, MIXELM=0) 
 =  3.978    (WHEN MIN. R.F.=1)  AT K=   2, I=   1, J=  44


 TOTAL NUMBER OF POINT SOURCES/SINKS PRESENT IN THE FLOW MODEL =    62

 MAXIMUM STEPSIZE WHICH MEETS STABILITY CRITERION OF THE SINK & SOURCE TERM
 =  702.5    (WHEN MIN. R.F.=1)  AT K=   2, I=   1, J=   1

 MAXIMUM STEPSIZE WHICH MEETS STABILITY CRITERION OF THE DISPERSION TERM
 =  20.29    (WHEN MIN. R.F.=1)  AT K=   1, I=   1, J=  31
     1 CALLS TO GCG PACKAGE FOR TRANSPORT TIME STEP   4 IN FLOW TIME STEP 497 STRESS PERIOD   1
     4 TOTAL ITERATIONS
  MAXIMUM CONCENTRATION CHANGES FOR EACH ITERATION:
  MAX. CHANGE LAYER,ROW,COL MAX. CHANGE LAYER,ROW,COL MAX. CHANGE LAYER,ROW,COL MAX. CHANGE LAYER,ROW,COL MAX. CHANGE LAYER,ROW,COL
 ------------------------------------------------------------------------------------------------------------------------------------
   0.7477E-02 (  2,  1, 77)  0.7251E-04 (  2,  1, 46)  0.1139E-05 (  2,  1, 78)  0.1823E-07 (  3,  1, 78)


                                          ================================================
                                                         FROM TIME =   4970.0     TO    4980.0    

 
 SOLVING FOR HEAD 
 FLOW MODEL IS TRANSIENT
 FLOW MODEL CONTAINS CONSTANT-HEAD CELLS


 MAXIMUM STEPSIZE DURING WHICH ANY PARTICLE CANNOT MOVE MORE THAN ONE CELL
 =  5.987    (WHEN MIN. R.F.=1)  AT K=   4, I=   1, J=  60

 MAXIMUM STEPSIZE WHICH MEETS STABILITY CRITERION OF THE ADVECTION TERM
 (FOR PURE FINITE-DIFFERENCE OPTION, MIXELM=0) 
 =  4.002    (WHEN MIN. R.F.=1)  AT K=   2, I=   1, J=  44


 TOTAL NUMBER OF POINT SOURCES/SINKS PRESENT IN THE FLOW MODEL =    62

 MAXIMUM STEPSIZE WHICH MEETS STABILITY CRITERION OF THE SINK & SOURCE TERM
 =  716.6    (WHEN MIN. R.F.=1)  AT K=   2, I=   1, J=   1

 MAXIMUM STEPSIZE WHICH MEETS STABILITY CRITERION OF THE DISPERSION TERM
 =  20.29    (WHEN MIN. R.F.=1)  AT K=   1, I=   1, J=  31


     1 CALLS TO GCG PACKAGE FOR TRANSPORT TIME STEP   1 IN FLOW TIME STEP 498 STRESS PERIOD   1
     6 TOTAL ITERATIONS

 NO OUTPUT CONTROL FOR STRESS PERIOD    1   TIME STEP 498
 
 SOLVING FOR HEAD 
 FLOW MODEL IS TRANSIENT
 FLOW MODEL CONTAINS CONSTANT-HEAD CELLS


 MAXIMUM STEPSIZE DURING WHICH ANY PARTICLE CANNOT MOVE MORE THAN ONE CELL
 =  5.992    (WHEN MIN. R.F.=1)  AT K=   4, I=   1, J=  60

 MAXIMUM STEPSIZE WHICH MEETS STABILITY CRITERION OF THE ADVECTION TERM
 (FOR PURE FINITE-DIFFERENCE OPTION, MIXELM=0) 
 =  4.208    (WHEN MIN. R.F.=1)  AT K=   2, I=   1, J=  44


 TOTAL NUMBER OF POINT SOURCES/SINKS PRESENT IN THE FLOW MODEL =    62

 MAXIMUM STEPSIZE WHICH MEETS STABILITY CRITERION OF THE SINK & SOURCE TERM
 =  629.6    (WHEN MIN. R.F.=1)  AT K=   2, I=   1, J=   1

 MAXIMUM STEPSIZE WHICH MEETS STABILITY CRITERION OF THE DISPERSION TERM
 =  20.29    (WHEN MIN. R.F.=1)  AT K=   1, I=   1, J=  31
     1 CALLS TO GCG PACKAGE FOR TRANSPORT TIME STEP   2 IN FLOW TIME STEP 498 STRESS PERIOD   1
     5 TOTAL ITERATIONS



 >>>>>>>>>>>>>>>>>>>>>>>>>>>>>>>>>>>>>>>>>>>>>>>>>>>>>>>FOR COMPONENT NO. 01<<<<<<<<<<<<<<<<<<<<<<<<<<<<<<<<<<<<<<<<<<<<<<<<<<<<<<<


                                            -------------------------------------------
                                                      TRANSPORT STEP NO.    2
                                            -------------------------------------------

 TOTAL ELAPSED TIME SINCE BEGINNING OF SIMULATION =   4974.800    D   
 .....................................................................

                     CUMULATIVE MASS BUDGETS AT END OF TRANSPORT STEP    2, TIME STEP  498, STRESS PERIOD    1
                     ------------------------------------------------------------------------------------------

                                                             IN                           OUT
                                                      ----------------             ----------------
                               CONSTANT CONCENTRATION:    2970572.                   -2048334.    
                                        CONSTANT HEAD:    0.000000                   -657.3069    
                               MASS STOR (FLOW MODEL):    337.2327                   -533.1258    
                                MASS STORAGE (SOLUTE):    5109338.                   -6030723.    
                            ---------------------------------------------------------------------------
                                              [TOTAL]:    8080247.     KG            -8080247.     KG  

                                                          NET (IN - OUT):  -0.1304501E-01
                                                   DISCREPANCY (PERCENT):  -0.1614432E-06
 
 SOLVING FOR HEAD 
 FLOW MODEL IS TRANSIENT
 FLOW MODEL CONTAINS CONSTANT-HEAD CELLS


 MAXIMUM STEPSIZE DURING WHICH ANY PARTICLE CANNOT MOVE MORE THAN ONE CELL
 =  5.998    (WHEN MIN. R.F.=1)  AT K=   4, I=   1, J=  60

 MAXIMUM STEPSIZE WHICH MEETS STABILITY CRITERION OF THE ADVECTION TERM
 (FOR PURE FINITE-DIFFERENCE OPTION, MIXELM=0) 
 =  4.430    (WHEN MIN. R.F.=1)  AT K=   2, I=   1, J=  44


 TOTAL NUMBER OF POINT SOURCES/SINKS PRESENT IN THE FLOW MODEL =    62

 MAXIMUM STEPSIZE WHICH MEETS STABILITY CRITERION OF THE SINK & SOURCE TERM
 =  603.8    (WHEN MIN. R.F.=1)  AT K=   2, I=   1, J=   1

 MAXIMUM STEPSIZE WHICH MEETS STABILITY CRITERION OF THE DISPERSION TERM
 =  20.29    (WHEN MIN. R.F.=1)  AT K=   1, I=   1, J=  31
     1 CALLS TO GCG PACKAGE FOR TRANSPORT TIME STEP   3 IN FLOW TIME STEP 498 STRESS PERIOD   1
     6 TOTAL ITERATIONS
 
 SOLVING FOR HEAD 
 FLOW MODEL IS TRANSIENT
 FLOW MODEL CONTAINS CONSTANT-HEAD CELLS


 MAXIMUM STEPSIZE DURING WHICH ANY PARTICLE CANNOT MOVE MORE THAN ONE CELL
 =  6.001    (WHEN MIN. R.F.=1)  AT K=   4, I=   1, J=  60

 MAXIMUM STEPSIZE WHICH MEETS STABILITY CRITERION OF THE ADVECTION TERM
 (FOR PURE FINITE-DIFFERENCE OPTION, MIXELM=0) 
 =  4.569    (WHEN MIN. R.F.=1)  AT K=   2, I=   1, J=  45


 TOTAL NUMBER OF POINT SOURCES/SINKS PRESENT IN THE FLOW MODEL =    62

 MAXIMUM STEPSIZE WHICH MEETS STABILITY CRITERION OF THE SINK & SOURCE TERM
 =  556.8    (WHEN MIN. R.F.=1)  AT K=   2, I=   1, J=   1

 MAXIMUM STEPSIZE WHICH MEETS STABILITY CRITERION OF THE DISPERSION TERM
 =  20.29    (WHEN MIN. R.F.=1)  AT K=   1, I=   1, J=  31
     1 CALLS TO GCG PACKAGE FOR TRANSPORT TIME STEP   4 IN FLOW TIME STEP 498 STRESS PERIOD   1
     5 TOTAL ITERATIONS
  MAXIMUM CONCENTRATION CHANGES FOR EACH ITERATION:
  MAX. CHANGE LAYER,ROW,COL MAX. CHANGE LAYER,ROW,COL MAX. CHANGE LAYER,ROW,COL MAX. CHANGE LAYER,ROW,COL MAX. CHANGE LAYER,ROW,COL
 ------------------------------------------------------------------------------------------------------------------------------------
   0.2409E-01 (  2,  1, 83)  0.7994E-03 (  2,  1, 83)  0.2965E-04 (  2,  1, 84)  0.1357E-05 (  3,  1, 84)  0.5509E-07 (  4,  1, 74)


                                          ================================================
                                                         FROM TIME =   4980.0     TO    4990.0    

 
 SOLVING FOR HEAD 
 FLOW MODEL IS TRANSIENT
 FLOW MODEL CONTAINS CONSTANT-HEAD CELLS


 MAXIMUM STEPSIZE DURING WHICH ANY PARTICLE CANNOT MOVE MORE THAN ONE CELL
 =  6.006    (WHEN MIN. R.F.=1)  AT K=   4, I=   1, J=  60

 MAXIMUM STEPSIZE WHICH MEETS STABILITY CRITERION OF THE ADVECTION TERM
 (FOR PURE FINITE-DIFFERENCE OPTION, MIXELM=0) 
 =  4.405    (WHEN MIN. R.F.=1)  AT K=   2, I=   1, J=  45


 TOTAL NUMBER OF POINT SOURCES/SINKS PRESENT IN THE FLOW MODEL =    62

 MAXIMUM STEPSIZE WHICH MEETS STABILITY CRITERION OF THE SINK & SOURCE TERM
 =  538.5    (WHEN MIN. R.F.=1)  AT K=   2, I=   1, J=   1

 MAXIMUM STEPSIZE WHICH MEETS STABILITY CRITERION OF THE DISPERSION TERM
 =  20.29    (WHEN MIN. R.F.=1)  AT K=   1, I=   1, J=  31


     1 CALLS TO GCG PACKAGE FOR TRANSPORT TIME STEP   1 IN FLOW TIME STEP 499 STRESS PERIOD   1
     6 TOTAL ITERATIONS

 NO OUTPUT CONTROL FOR STRESS PERIOD    1   TIME STEP 499
 
 SOLVING FOR HEAD 
 FLOW MODEL IS TRANSIENT
 FLOW MODEL CONTAINS CONSTANT-HEAD CELLS


 MAXIMUM STEPSIZE DURING WHICH ANY PARTICLE CANNOT MOVE MORE THAN ONE CELL
 =  5.850    (WHEN MIN. R.F.=1)  AT K=   4, I=   1, J=  74

 MAXIMUM STEPSIZE WHICH MEETS STABILITY CRITERION OF THE ADVECTION TERM
 (FOR PURE FINITE-DIFFERENCE OPTION, MIXELM=0) 
 =  4.281    (WHEN MIN. R.F.=1)  AT K=   2, I=   1, J=  45


 TOTAL NUMBER OF POINT SOURCES/SINKS PRESENT IN THE FLOW MODEL =    62

 MAXIMUM STEPSIZE WHICH MEETS STABILITY CRITERION OF THE SINK & SOURCE TERM
 =  494.4    (WHEN MIN. R.F.=1)  AT K=   2, I=   1, J=   1

 MAXIMUM STEPSIZE WHICH MEETS STABILITY CRITERION OF THE DISPERSION TERM
 =  20.29    (WHEN MIN. R.F.=1)  AT K=   1, I=   1, J=  31
     1 CALLS TO GCG PACKAGE FOR TRANSPORT TIME STEP   2 IN FLOW TIME STEP 499 STRESS PERIOD   1
     6 TOTAL ITERATIONS
 
 SOLVING FOR HEAD 
 FLOW MODEL IS TRANSIENT
 FLOW MODEL CONTAINS CONSTANT-HEAD CELLS


 MAXIMUM STEPSIZE DURING WHICH ANY PARTICLE CANNOT MOVE MORE THAN ONE CELL
 =  5.496    (WHEN MIN. R.F.=1)  AT K=   4, I=   1, J=  74

 MAXIMUM STEPSIZE WHICH MEETS STABILITY CRITERION OF THE ADVECTION TERM
 (FOR PURE FINITE-DIFFERENCE OPTION, MIXELM=0) 
 =  4.072    (WHEN MIN. R.F.=1)  AT K=   2, I=   1, J=  81


 TOTAL NUMBER OF POINT SOURCES/SINKS PRESENT IN THE FLOW MODEL =    62

 MAXIMUM STEPSIZE WHICH MEETS STABILITY CRITERION OF THE SINK & SOURCE TERM
 =  475.9    (WHEN MIN. R.F.=1)  AT K=   2, I=   1, J=   1

 MAXIMUM STEPSIZE WHICH MEETS STABILITY CRITERION OF THE DISPERSION TERM
 =  20.29    (WHEN MIN. R.F.=1)  AT K=   1, I=   1, J=  31
     1 CALLS TO GCG PACKAGE FOR TRANSPORT TIME STEP   3 IN FLOW TIME STEP 499 STRESS PERIOD   1
     6 TOTAL ITERATIONS
 
 SOLVING FOR HEAD 
 FLOW MODEL IS TRANSIENT
 FLOW MODEL CONTAINS CONSTANT-HEAD CELLS


 MAXIMUM STEPSIZE DURING WHICH ANY PARTICLE CANNOT MOVE MORE THAN ONE CELL
 =  5.247    (WHEN MIN. R.F.=1)  AT K=   4, I=   1, J=  74

 MAXIMUM STEPSIZE WHICH MEETS STABILITY CRITERION OF THE ADVECTION TERM
 (FOR PURE FINITE-DIFFERENCE OPTION, MIXELM=0) 
 =  3.894    (WHEN MIN. R.F.=1)  AT K=   2, I=   1, J=  81


 TOTAL NUMBER OF POINT SOURCES/SINKS PRESENT IN THE FLOW MODEL =    62

 MAXIMUM STEPSIZE WHICH MEETS STABILITY CRITERION OF THE SINK & SOURCE TERM
 =  526.3    (WHEN MIN. R.F.=1)  AT K=   2, I=   1, J=   1

 MAXIMUM STEPSIZE WHICH MEETS STABILITY CRITERION OF THE DISPERSION TERM
 =  20.29    (WHEN MIN. R.F.=1)  AT K=   1, I=   1, J=  31
     1 CALLS TO GCG PACKAGE FOR TRANSPORT TIME STEP   4 IN FLOW TIME STEP 499 STRESS PERIOD   1
     3 TOTAL ITERATIONS
  MAXIMUM CONCENTRATION CHANGES FOR EACH ITERATION:
  MAX. CHANGE LAYER,ROW,COL MAX. CHANGE LAYER,ROW,COL MAX. CHANGE LAYER,ROW,COL MAX. CHANGE LAYER,ROW,COL MAX. CHANGE LAYER,ROW,COL
 ------------------------------------------------------------------------------------------------------------------------------------
   0.6745E-03 (  2,  1, 76)  0.7247E-06 (  2,  1, 82)  0.8378E-09 (  2,  1, 83)


                                          ================================================
                                                         FROM TIME =   4990.0     TO    5000.0    

 
 SOLVING FOR HEAD 
 FLOW MODEL IS TRANSIENT
 FLOW MODEL CONTAINS CONSTANT-HEAD CELLS


 MAXIMUM STEPSIZE DURING WHICH ANY PARTICLE CANNOT MOVE MORE THAN ONE CELL
 =  5.243    (WHEN MIN. R.F.=1)  AT K=   4, I=   1, J=  74

 MAXIMUM STEPSIZE WHICH MEETS STABILITY CRITERION OF THE ADVECTION TERM
 (FOR PURE FINITE-DIFFERENCE OPTION, MIXELM=0) 
 =  3.894    (WHEN MIN. R.F.=1)  AT K=   2, I=   1, J=  81


 TOTAL NUMBER OF POINT SOURCES/SINKS PRESENT IN THE FLOW MODEL =    62

 MAXIMUM STEPSIZE WHICH MEETS STABILITY CRITERION OF THE SINK & SOURCE TERM
 =  501.3    (WHEN MIN. R.F.=1)  AT K=   2, I=   1, J=   1

 MAXIMUM STEPSIZE WHICH MEETS STABILITY CRITERION OF THE DISPERSION TERM
 =  20.29    (WHEN MIN. R.F.=1)  AT K=   1, I=   1, J=  31


     1 CALLS TO GCG PACKAGE FOR TRANSPORT TIME STEP   1 IN FLOW TIME STEP 500 STRESS PERIOD   1
     6 TOTAL ITERATIONS

 NO OUTPUT CONTROL FOR STRESS PERIOD    1   TIME STEP 500
 
 SOLVING FOR HEAD 
 FLOW MODEL IS TRANSIENT
 FLOW MODEL CONTAINS CONSTANT-HEAD CELLS


 MAXIMUM STEPSIZE DURING WHICH ANY PARTICLE CANNOT MOVE MORE THAN ONE CELL
 =  5.087    (WHEN MIN. R.F.=1)  AT K=   4, I=   1, J=  74

 MAXIMUM STEPSIZE WHICH MEETS STABILITY CRITERION OF THE ADVECTION TERM
 (FOR PURE FINITE-DIFFERENCE OPTION, MIXELM=0) 
 =  3.963    (WHEN MIN. R.F.=1)  AT K=   2, I=   1, J=  81


 TOTAL NUMBER OF POINT SOURCES/SINKS PRESENT IN THE FLOW MODEL =    62

 MAXIMUM STEPSIZE WHICH MEETS STABILITY CRITERION OF THE SINK & SOURCE TERM
 =  438.0    (WHEN MIN. R.F.=1)  AT K=   2, I=   1, J=   1

 MAXIMUM STEPSIZE WHICH MEETS STABILITY CRITERION OF THE DISPERSION TERM
 =  20.29    (WHEN MIN. R.F.=1)  AT K=   1, I=   1, J=  31
     1 CALLS TO GCG PACKAGE FOR TRANSPORT TIME STEP   2 IN FLOW TIME STEP 500 STRESS PERIOD   1
     6 TOTAL ITERATIONS
 
 SOLVING FOR HEAD 
 FLOW MODEL IS TRANSIENT
 FLOW MODEL CONTAINS CONSTANT-HEAD CELLS


 MAXIMUM STEPSIZE DURING WHICH ANY PARTICLE CANNOT MOVE MORE THAN ONE CELL
 =  4.994    (WHEN MIN. R.F.=1)  AT K=   4, I=   1, J=  74

 MAXIMUM STEPSIZE WHICH MEETS STABILITY CRITERION OF THE ADVECTION TERM
 (FOR PURE FINITE-DIFFERENCE OPTION, MIXELM=0) 
 =  4.053    (WHEN MIN. R.F.=1)  AT K=   2, I=   1, J=  80


 TOTAL NUMBER OF POINT SOURCES/SINKS PRESENT IN THE FLOW MODEL =    62

 MAXIMUM STEPSIZE WHICH MEETS STABILITY CRITERION OF THE SINK & SOURCE TERM
 =  400.7    (WHEN MIN. R.F.=1)  AT K=   2, I=   1, J=   1

 MAXIMUM STEPSIZE WHICH MEETS STABILITY CRITERION OF THE DISPERSION TERM
 =  20.29    (WHEN MIN. R.F.=1)  AT K=   1, I=   1, J=  31
     1 CALLS TO GCG PACKAGE FOR TRANSPORT TIME STEP   3 IN FLOW TIME STEP 500 STRESS PERIOD   1
     6 TOTAL ITERATIONS
 
 SOLVING FOR HEAD 
 FLOW MODEL IS TRANSIENT
 FLOW MODEL CONTAINS CONSTANT-HEAD CELLS


 MAXIMUM STEPSIZE DURING WHICH ANY PARTICLE CANNOT MOVE MORE THAN ONE CELL
 =  4.964    (WHEN MIN. R.F.=1)  AT K=   4, I=   1, J=  74

 MAXIMUM STEPSIZE WHICH MEETS STABILITY CRITERION OF THE ADVECTION TERM
 (FOR PURE FINITE-DIFFERENCE OPTION, MIXELM=0) 
 =  3.718    (WHEN MIN. R.F.=1)  AT K=   2, I=   1, J=  80


 TOTAL NUMBER OF POINT SOURCES/SINKS PRESENT IN THE FLOW MODEL =    62

 MAXIMUM STEPSIZE WHICH MEETS STABILITY CRITERION OF THE SINK & SOURCE TERM
 =  396.0    (WHEN MIN. R.F.=1)  AT K=   2, I=   1, J=   1

 MAXIMUM STEPSIZE WHICH MEETS STABILITY CRITERION OF THE DISPERSION TERM
 =  20.29    (WHEN MIN. R.F.=1)  AT K=   1, I=   1, J=  31
     1 CALLS TO GCG PACKAGE FOR TRANSPORT TIME STEP   4 IN FLOW TIME STEP 500 STRESS PERIOD   1
     5 TOTAL ITERATIONS
  MAXIMUM CONCENTRATION CHANGES FOR EACH ITERATION:
  MAX. CHANGE LAYER,ROW,COL MAX. CHANGE LAYER,ROW,COL MAX. CHANGE LAYER,ROW,COL MAX. CHANGE LAYER,ROW,COL MAX. CHANGE LAYER,ROW,COL
 ------------------------------------------------------------------------------------------------------------------------------------
   0.1270E-01 (  2,  1, 31)  0.2290E-03 (  2,  1, 81)  0.5185E-05 (  2,  1, 30)  0.1756E-06 (  3,  1, 77)  0.3720E-08 (  4,  1, 77)


                                          ================================================
                                                         FROM TIME =   5000.0     TO    5010.0    

 
 SOLVING FOR HEAD 
 FLOW MODEL IS TRANSIENT
 FLOW MODEL CONTAINS CONSTANT-HEAD CELLS


 MAXIMUM STEPSIZE DURING WHICH ANY PARTICLE CANNOT MOVE MORE THAN ONE CELL
 =  4.966    (WHEN MIN. R.F.=1)  AT K=   4, I=   1, J=  74

 MAXIMUM STEPSIZE WHICH MEETS STABILITY CRITERION OF THE ADVECTION TERM
 (FOR PURE FINITE-DIFFERENCE OPTION, MIXELM=0) 
 =  3.668    (WHEN MIN. R.F.=1)  AT K=   2, I=   1, J=  80


 TOTAL NUMBER OF POINT SOURCES/SINKS PRESENT IN THE FLOW MODEL =    62

 MAXIMUM STEPSIZE WHICH MEETS STABILITY CRITERION OF THE SINK & SOURCE TERM
 =  416.8    (WHEN MIN. R.F.=1)  AT K=   2, I=   1, J=   1

 MAXIMUM STEPSIZE WHICH MEETS STABILITY CRITERION OF THE DISPERSION TERM
 =  20.29    (WHEN MIN. R.F.=1)  AT K=   1, I=   1, J=  31


     1 CALLS TO GCG PACKAGE FOR TRANSPORT TIME STEP   1 IN FLOW TIME STEP 501 STRESS PERIOD   1
     6 TOTAL ITERATIONS

 NO OUTPUT CONTROL FOR STRESS PERIOD    1   TIME STEP 501
 
 SOLVING FOR HEAD 
 FLOW MODEL IS TRANSIENT
 FLOW MODEL CONTAINS CONSTANT-HEAD CELLS


 MAXIMUM STEPSIZE DURING WHICH ANY PARTICLE CANNOT MOVE MORE THAN ONE CELL
 =  5.008    (WHEN MIN. R.F.=1)  AT K=   4, I=   1, J=  74

 MAXIMUM STEPSIZE WHICH MEETS STABILITY CRITERION OF THE ADVECTION TERM
 (FOR PURE FINITE-DIFFERENCE OPTION, MIXELM=0) 
 =  3.620    (WHEN MIN. R.F.=1)  AT K=   2, I=   1, J=  80


 TOTAL NUMBER OF POINT SOURCES/SINKS PRESENT IN THE FLOW MODEL =    62

 MAXIMUM STEPSIZE WHICH MEETS STABILITY CRITERION OF THE SINK & SOURCE TERM
 =  375.2    (WHEN MIN. R.F.=1)  AT K=   2, I=   1, J=   1

 MAXIMUM STEPSIZE WHICH MEETS STABILITY CRITERION OF THE DISPERSION TERM
 =  20.29    (WHEN MIN. R.F.=1)  AT K=   1, I=   1, J=  31
     1 CALLS TO GCG PACKAGE FOR TRANSPORT TIME STEP   2 IN FLOW TIME STEP 501 STRESS PERIOD   1
     6 TOTAL ITERATIONS
 
 SOLVING FOR HEAD 
 FLOW MODEL IS TRANSIENT
 FLOW MODEL CONTAINS CONSTANT-HEAD CELLS


 MAXIMUM STEPSIZE DURING WHICH ANY PARTICLE CANNOT MOVE MORE THAN ONE CELL
 =  5.059    (WHEN MIN. R.F.=1)  AT K=   5, I=   1, J=  74

 MAXIMUM STEPSIZE WHICH MEETS STABILITY CRITERION OF THE ADVECTION TERM
 (FOR PURE FINITE-DIFFERENCE OPTION, MIXELM=0) 
 =  3.765    (WHEN MIN. R.F.=1)  AT K=   2, I=   1, J=  80


 TOTAL NUMBER OF POINT SOURCES/SINKS PRESENT IN THE FLOW MODEL =    62

 MAXIMUM STEPSIZE WHICH MEETS STABILITY CRITERION OF THE SINK & SOURCE TERM
 =  367.7    (WHEN MIN. R.F.=1)  AT K=   2, I=   1, J=   1

 MAXIMUM STEPSIZE WHICH MEETS STABILITY CRITERION OF THE DISPERSION TERM
 =  20.29    (WHEN MIN. R.F.=1)  AT K=   1, I=   1, J=  31
     1 CALLS TO GCG PACKAGE FOR TRANSPORT TIME STEP   3 IN FLOW TIME STEP 501 STRESS PERIOD   1
     6 TOTAL ITERATIONS
 
 SOLVING FOR HEAD 
 FLOW MODEL IS TRANSIENT
 FLOW MODEL CONTAINS CONSTANT-HEAD CELLS


 MAXIMUM STEPSIZE DURING WHICH ANY PARTICLE CANNOT MOVE MORE THAN ONE CELL
 =  5.118    (WHEN MIN. R.F.=1)  AT K=   5, I=   1, J=  74

 MAXIMUM STEPSIZE WHICH MEETS STABILITY CRITERION OF THE ADVECTION TERM
 (FOR PURE FINITE-DIFFERENCE OPTION, MIXELM=0) 
 =  3.896    (WHEN MIN. R.F.=1)  AT K=   2, I=   1, J=  79


 TOTAL NUMBER OF POINT SOURCES/SINKS PRESENT IN THE FLOW MODEL =    62

 MAXIMUM STEPSIZE WHICH MEETS STABILITY CRITERION OF THE SINK & SOURCE TERM
 =  362.6    (WHEN MIN. R.F.=1)  AT K=   2, I=   1, J=   1

 MAXIMUM STEPSIZE WHICH MEETS STABILITY CRITERION OF THE DISPERSION TERM
 =  20.29    (WHEN MIN. R.F.=1)  AT K=   1, I=   1, J=  31
     1 CALLS TO GCG PACKAGE FOR TRANSPORT TIME STEP   4 IN FLOW TIME STEP 501 STRESS PERIOD   1
     5 TOTAL ITERATIONS
  MAXIMUM CONCENTRATION CHANGES FOR EACH ITERATION:
  MAX. CHANGE LAYER,ROW,COL MAX. CHANGE LAYER,ROW,COL MAX. CHANGE LAYER,ROW,COL MAX. CHANGE LAYER,ROW,COL MAX. CHANGE LAYER,ROW,COL
 ------------------------------------------------------------------------------------------------------------------------------------
   0.2102E-01 (  2,  1, 81)  0.5978E-03 (  2,  1, 79)  0.2439E-04 (  3,  1, 79)  0.9080E-06 (  3,  1, 76)  0.2454E-07 (  4,  1, 76)


                                          ================================================
                                                         FROM TIME =   5010.0     TO    5020.0    

 
 SOLVING FOR HEAD 
 FLOW MODEL IS TRANSIENT
 FLOW MODEL CONTAINS CONSTANT-HEAD CELLS


 MAXIMUM STEPSIZE DURING WHICH ANY PARTICLE CANNOT MOVE MORE THAN ONE CELL
 =  5.178    (WHEN MIN. R.F.=1)  AT K=   5, I=   1, J=  74

 MAXIMUM STEPSIZE WHICH MEETS STABILITY CRITERION OF THE ADVECTION TERM
 (FOR PURE FINITE-DIFFERENCE OPTION, MIXELM=0) 
 =  3.725    (WHEN MIN. R.F.=1)  AT K=   2, I=   1, J=  79


 TOTAL NUMBER OF POINT SOURCES/SINKS PRESENT IN THE FLOW MODEL =    62

 MAXIMUM STEPSIZE WHICH MEETS STABILITY CRITERION OF THE SINK & SOURCE TERM
 =  366.8    (WHEN MIN. R.F.=1)  AT K=   2, I=   1, J=   1

 MAXIMUM STEPSIZE WHICH MEETS STABILITY CRITERION OF THE DISPERSION TERM
 =  20.29    (WHEN MIN. R.F.=1)  AT K=   1, I=   1, J=  31


     1 CALLS TO GCG PACKAGE FOR TRANSPORT TIME STEP   1 IN FLOW TIME STEP 502 STRESS PERIOD   1
     6 TOTAL ITERATIONS

 NO OUTPUT CONTROL FOR STRESS PERIOD    1   TIME STEP 502
 
 SOLVING FOR HEAD 
 FLOW MODEL IS TRANSIENT
 FLOW MODEL CONTAINS CONSTANT-HEAD CELLS


 MAXIMUM STEPSIZE DURING WHICH ANY PARTICLE CANNOT MOVE MORE THAN ONE CELL
 =  5.309    (WHEN MIN. R.F.=1)  AT K=   5, I=   1, J=  74

 MAXIMUM STEPSIZE WHICH MEETS STABILITY CRITERION OF THE ADVECTION TERM
 (FOR PURE FINITE-DIFFERENCE OPTION, MIXELM=0) 
 =  3.572    (WHEN MIN. R.F.=1)  AT K=   2, I=   1, J=  79


 TOTAL NUMBER OF POINT SOURCES/SINKS PRESENT IN THE FLOW MODEL =    62

 MAXIMUM STEPSIZE WHICH MEETS STABILITY CRITERION OF THE SINK & SOURCE TERM
 =  347.2    (WHEN MIN. R.F.=1)  AT K=   2, I=   1, J=   1

 MAXIMUM STEPSIZE WHICH MEETS STABILITY CRITERION OF THE DISPERSION TERM
 =  20.29    (WHEN MIN. R.F.=1)  AT K=   1, I=   1, J=  31
     1 CALLS TO GCG PACKAGE FOR TRANSPORT TIME STEP   2 IN FLOW TIME STEP 502 STRESS PERIOD   1
     6 TOTAL ITERATIONS
 
 SOLVING FOR HEAD 
 FLOW MODEL IS TRANSIENT
 FLOW MODEL CONTAINS CONSTANT-HEAD CELLS


 MAXIMUM STEPSIZE DURING WHICH ANY PARTICLE CANNOT MOVE MORE THAN ONE CELL
 =  5.410    (WHEN MIN. R.F.=1)  AT K=   6, I=   1, J=  74

 MAXIMUM STEPSIZE WHICH MEETS STABILITY CRITERION OF THE ADVECTION TERM
 (FOR PURE FINITE-DIFFERENCE OPTION, MIXELM=0) 
 =  3.567    (WHEN MIN. R.F.=1)  AT K=   2, I=   1, J=  79


 TOTAL NUMBER OF POINT SOURCES/SINKS PRESENT IN THE FLOW MODEL =    62

 MAXIMUM STEPSIZE WHICH MEETS STABILITY CRITERION OF THE SINK & SOURCE TERM
 =  335.6    (WHEN MIN. R.F.=1)  AT K=   2, I=   1, J=   1

 MAXIMUM STEPSIZE WHICH MEETS STABILITY CRITERION OF THE DISPERSION TERM
 =  20.29    (WHEN MIN. R.F.=1)  AT K=   1, I=   1, J=  31
     1 CALLS TO GCG PACKAGE FOR TRANSPORT TIME STEP   3 IN FLOW TIME STEP 502 STRESS PERIOD   1
     6 TOTAL ITERATIONS
 
 SOLVING FOR HEAD 
 FLOW MODEL IS TRANSIENT
 FLOW MODEL CONTAINS CONSTANT-HEAD CELLS


 MAXIMUM STEPSIZE DURING WHICH ANY PARTICLE CANNOT MOVE MORE THAN ONE CELL
 =  5.423    (WHEN MIN. R.F.=1)  AT K=   4, I=   1, J=  47

 MAXIMUM STEPSIZE WHICH MEETS STABILITY CRITERION OF THE ADVECTION TERM
 (FOR PURE FINITE-DIFFERENCE OPTION, MIXELM=0) 
 =  3.691    (WHEN MIN. R.F.=1)  AT K=   2, I=   1, J=  79


 TOTAL NUMBER OF POINT SOURCES/SINKS PRESENT IN THE FLOW MODEL =    62

 MAXIMUM STEPSIZE WHICH MEETS STABILITY CRITERION OF THE SINK & SOURCE TERM
 =  336.4    (WHEN MIN. R.F.=1)  AT K=   2, I=   1, J=   1

 MAXIMUM STEPSIZE WHICH MEETS STABILITY CRITERION OF THE DISPERSION TERM
 =  20.29    (WHEN MIN. R.F.=1)  AT K=   1, I=   1, J=  31
     1 CALLS TO GCG PACKAGE FOR TRANSPORT TIME STEP   4 IN FLOW TIME STEP 502 STRESS PERIOD   1
     5 TOTAL ITERATIONS
  MAXIMUM CONCENTRATION CHANGES FOR EACH ITERATION:
  MAX. CHANGE LAYER,ROW,COL MAX. CHANGE LAYER,ROW,COL MAX. CHANGE LAYER,ROW,COL MAX. CHANGE LAYER,ROW,COL MAX. CHANGE LAYER,ROW,COL
 ------------------------------------------------------------------------------------------------------------------------------------
   0.2000E-01 (  2,  1, 80)  0.4630E-03 (  2,  1, 78)  0.1994E-04 (  3,  1, 78)  0.8310E-06 (  3,  1, 76)  0.2079E-07 (  4,  1, 76)


                                          ================================================
                                                         FROM TIME =   5020.0     TO    5030.0    

 
 SOLVING FOR HEAD 
 FLOW MODEL IS TRANSIENT
 FLOW MODEL CONTAINS CONSTANT-HEAD CELLS


 MAXIMUM STEPSIZE DURING WHICH ANY PARTICLE CANNOT MOVE MORE THAN ONE CELL
 =  5.447    (WHEN MIN. R.F.=1)  AT K=   4, I=   1, J=  47

 MAXIMUM STEPSIZE WHICH MEETS STABILITY CRITERION OF THE ADVECTION TERM
 (FOR PURE FINITE-DIFFERENCE OPTION, MIXELM=0) 
 =  3.871    (WHEN MIN. R.F.=1)  AT K=   2, I=   1, J=  79


 TOTAL NUMBER OF POINT SOURCES/SINKS PRESENT IN THE FLOW MODEL =    62

 MAXIMUM STEPSIZE WHICH MEETS STABILITY CRITERION OF THE SINK & SOURCE TERM
 =  339.4    (WHEN MIN. R.F.=1)  AT K=   2, I=   1, J=   1

 MAXIMUM STEPSIZE WHICH MEETS STABILITY CRITERION OF THE DISPERSION TERM
 =  20.29    (WHEN MIN. R.F.=1)  AT K=   1, I=   1, J=  31


     1 CALLS TO GCG PACKAGE FOR TRANSPORT TIME STEP   1 IN FLOW TIME STEP 503 STRESS PERIOD   1
     6 TOTAL ITERATIONS

 NO OUTPUT CONTROL FOR STRESS PERIOD    1   TIME STEP 503
 
 SOLVING FOR HEAD 
 FLOW MODEL IS TRANSIENT
 FLOW MODEL CONTAINS CONSTANT-HEAD CELLS


 MAXIMUM STEPSIZE DURING WHICH ANY PARTICLE CANNOT MOVE MORE THAN ONE CELL
 =  5.551    (WHEN MIN. R.F.=1)  AT K=   4, I=   1, J=  47

 MAXIMUM STEPSIZE WHICH MEETS STABILITY CRITERION OF THE ADVECTION TERM
 (FOR PURE FINITE-DIFFERENCE OPTION, MIXELM=0) 
 =  3.805    (WHEN MIN. R.F.=1)  AT K=   2, I=   1, J=  41


 TOTAL NUMBER OF POINT SOURCES/SINKS PRESENT IN THE FLOW MODEL =    62

 MAXIMUM STEPSIZE WHICH MEETS STABILITY CRITERION OF THE SINK & SOURCE TERM
 =  320.1    (WHEN MIN. R.F.=1)  AT K=   2, I=   1, J=   1

 MAXIMUM STEPSIZE WHICH MEETS STABILITY CRITERION OF THE DISPERSION TERM
 =  20.29    (WHEN MIN. R.F.=1)  AT K=   1, I=   1, J=  31
     1 CALLS TO GCG PACKAGE FOR TRANSPORT TIME STEP   2 IN FLOW TIME STEP 503 STRESS PERIOD   1
     6 TOTAL ITERATIONS
 
 SOLVING FOR HEAD 
 FLOW MODEL IS TRANSIENT
 FLOW MODEL CONTAINS CONSTANT-HEAD CELLS


 MAXIMUM STEPSIZE DURING WHICH ANY PARTICLE CANNOT MOVE MORE THAN ONE CELL
 =  5.597    (WHEN MIN. R.F.=1)  AT K=   5, I=   1, J=  47

 MAXIMUM STEPSIZE WHICH MEETS STABILITY CRITERION OF THE ADVECTION TERM
 (FOR PURE FINITE-DIFFERENCE OPTION, MIXELM=0) 
 =  3.700    (WHEN MIN. R.F.=1)  AT K=   2, I=   1, J=  78


 TOTAL NUMBER OF POINT SOURCES/SINKS PRESENT IN THE FLOW MODEL =    62

 MAXIMUM STEPSIZE WHICH MEETS STABILITY CRITERION OF THE SINK & SOURCE TERM
 =  330.9    (WHEN MIN. R.F.=1)  AT K=   2, I=   1, J=   1

 MAXIMUM STEPSIZE WHICH MEETS STABILITY CRITERION OF THE DISPERSION TERM
 =  20.29    (WHEN MIN. R.F.=1)  AT K=   1, I=   1, J=  31
     1 CALLS TO GCG PACKAGE FOR TRANSPORT TIME STEP   3 IN FLOW TIME STEP 503 STRESS PERIOD   1
     6 TOTAL ITERATIONS
 
 SOLVING FOR HEAD 
 FLOW MODEL IS TRANSIENT
 FLOW MODEL CONTAINS CONSTANT-HEAD CELLS


 MAXIMUM STEPSIZE DURING WHICH ANY PARTICLE CANNOT MOVE MORE THAN ONE CELL
 =  5.723    (WHEN MIN. R.F.=1)  AT K=   5, I=   1, J=  47

 MAXIMUM STEPSIZE WHICH MEETS STABILITY CRITERION OF THE ADVECTION TERM
 (FOR PURE FINITE-DIFFERENCE OPTION, MIXELM=0) 
 =  3.647    (WHEN MIN. R.F.=1)  AT K=   2, I=   1, J=  78


 TOTAL NUMBER OF POINT SOURCES/SINKS PRESENT IN THE FLOW MODEL =    62

 MAXIMUM STEPSIZE WHICH MEETS STABILITY CRITERION OF THE SINK & SOURCE TERM
 =  339.0    (WHEN MIN. R.F.=1)  AT K=   2, I=   1, J=   1

 MAXIMUM STEPSIZE WHICH MEETS STABILITY CRITERION OF THE DISPERSION TERM
 =  20.29    (WHEN MIN. R.F.=1)  AT K=   1, I=   1, J=  31
     1 CALLS TO GCG PACKAGE FOR TRANSPORT TIME STEP   4 IN FLOW TIME STEP 503 STRESS PERIOD   1
     5 TOTAL ITERATIONS
  MAXIMUM CONCENTRATION CHANGES FOR EACH ITERATION:
  MAX. CHANGE LAYER,ROW,COL MAX. CHANGE LAYER,ROW,COL MAX. CHANGE LAYER,ROW,COL MAX. CHANGE LAYER,ROW,COL MAX. CHANGE LAYER,ROW,COL
 ------------------------------------------------------------------------------------------------------------------------------------
   0.1687E-01 (  2,  1, 79)  0.4182E-03 (  2,  1, 79)  0.1225E-04 (  3,  1, 42)  0.4492E-06 (  3,  1, 45)  0.1191E-07 (  4,  1, 79)


                                          ================================================
                                                         FROM TIME =   5030.0     TO    5040.0    

 
 SOLVING FOR HEAD 
 FLOW MODEL IS TRANSIENT
 FLOW MODEL CONTAINS CONSTANT-HEAD CELLS


 MAXIMUM STEPSIZE DURING WHICH ANY PARTICLE CANNOT MOVE MORE THAN ONE CELL
 =  5.812    (WHEN MIN. R.F.=1)  AT K=   5, I=   1, J=  47

 MAXIMUM STEPSIZE WHICH MEETS STABILITY CRITERION OF THE ADVECTION TERM
 (FOR PURE FINITE-DIFFERENCE OPTION, MIXELM=0) 
 =  3.672    (WHEN MIN. R.F.=1)  AT K=   2, I=   1, J=  78


 TOTAL NUMBER OF POINT SOURCES/SINKS PRESENT IN THE FLOW MODEL =    62

 MAXIMUM STEPSIZE WHICH MEETS STABILITY CRITERION OF THE SINK & SOURCE TERM
 =  349.1    (WHEN MIN. R.F.=1)  AT K=   2, I=   1, J=   1

 MAXIMUM STEPSIZE WHICH MEETS STABILITY CRITERION OF THE DISPERSION TERM
 =  20.29    (WHEN MIN. R.F.=1)  AT K=   1, I=   1, J=  31


     1 CALLS TO GCG PACKAGE FOR TRANSPORT TIME STEP   1 IN FLOW TIME STEP 504 STRESS PERIOD   1
     6 TOTAL ITERATIONS

 NO OUTPUT CONTROL FOR STRESS PERIOD    1   TIME STEP 504
 
 SOLVING FOR HEAD 
 FLOW MODEL IS TRANSIENT
 FLOW MODEL CONTAINS CONSTANT-HEAD CELLS


 MAXIMUM STEPSIZE DURING WHICH ANY PARTICLE CANNOT MOVE MORE THAN ONE CELL
 =  5.898    (WHEN MIN. R.F.=1)  AT K=   6, I=   1, J=  47

 MAXIMUM STEPSIZE WHICH MEETS STABILITY CRITERION OF THE ADVECTION TERM
 (FOR PURE FINITE-DIFFERENCE OPTION, MIXELM=0) 
 =  3.787    (WHEN MIN. R.F.=1)  AT K=   2, I=   1, J=  42


 TOTAL NUMBER OF POINT SOURCES/SINKS PRESENT IN THE FLOW MODEL =    62

 MAXIMUM STEPSIZE WHICH MEETS STABILITY CRITERION OF THE SINK & SOURCE TERM
 =  323.8    (WHEN MIN. R.F.=1)  AT K=   2, I=   1, J=   1

 MAXIMUM STEPSIZE WHICH MEETS STABILITY CRITERION OF THE DISPERSION TERM
 =  20.29    (WHEN MIN. R.F.=1)  AT K=   1, I=   1, J=  31
     1 CALLS TO GCG PACKAGE FOR TRANSPORT TIME STEP   2 IN FLOW TIME STEP 504 STRESS PERIOD   1
     6 TOTAL ITERATIONS
 
 SOLVING FOR HEAD 
 FLOW MODEL IS TRANSIENT
 FLOW MODEL CONTAINS CONSTANT-HEAD CELLS


 MAXIMUM STEPSIZE DURING WHICH ANY PARTICLE CANNOT MOVE MORE THAN ONE CELL
 =  6.025    (WHEN MIN. R.F.=1)  AT K=   6, I=   1, J=  47

 MAXIMUM STEPSIZE WHICH MEETS STABILITY CRITERION OF THE ADVECTION TERM
 (FOR PURE FINITE-DIFFERENCE OPTION, MIXELM=0) 
 =  3.728    (WHEN MIN. R.F.=1)  AT K=   2, I=   1, J=  42


 TOTAL NUMBER OF POINT SOURCES/SINKS PRESENT IN THE FLOW MODEL =    62

 MAXIMUM STEPSIZE WHICH MEETS STABILITY CRITERION OF THE SINK & SOURCE TERM
 =  313.7    (WHEN MIN. R.F.=1)  AT K=   2, I=   1, J=   1

 MAXIMUM STEPSIZE WHICH MEETS STABILITY CRITERION OF THE DISPERSION TERM
 =  20.29    (WHEN MIN. R.F.=1)  AT K=   1, I=   1, J=  31
     1 CALLS TO GCG PACKAGE FOR TRANSPORT TIME STEP   3 IN FLOW TIME STEP 504 STRESS PERIOD   1
     6 TOTAL ITERATIONS
 
 SOLVING FOR HEAD 
 FLOW MODEL IS TRANSIENT
 FLOW MODEL CONTAINS CONSTANT-HEAD CELLS


 MAXIMUM STEPSIZE DURING WHICH ANY PARTICLE CANNOT MOVE MORE THAN ONE CELL
 =  5.994    (WHEN MIN. R.F.=1)  AT K=   4, I=   1, J=  48

 MAXIMUM STEPSIZE WHICH MEETS STABILITY CRITERION OF THE ADVECTION TERM
 (FOR PURE FINITE-DIFFERENCE OPTION, MIXELM=0) 
 =  3.782    (WHEN MIN. R.F.=1)  AT K=   2, I=   1, J=  42


 TOTAL NUMBER OF POINT SOURCES/SINKS PRESENT IN THE FLOW MODEL =    62

 MAXIMUM STEPSIZE WHICH MEETS STABILITY CRITERION OF THE SINK & SOURCE TERM
 =  318.2    (WHEN MIN. R.F.=1)  AT K=   2, I=   1, J=   1

 MAXIMUM STEPSIZE WHICH MEETS STABILITY CRITERION OF THE DISPERSION TERM
 =  20.29    (WHEN MIN. R.F.=1)  AT K=   1, I=   1, J=  31
     1 CALLS TO GCG PACKAGE FOR TRANSPORT TIME STEP   4 IN FLOW TIME STEP 504 STRESS PERIOD   1
     5 TOTAL ITERATIONS
  MAXIMUM CONCENTRATION CHANGES FOR EACH ITERATION:
  MAX. CHANGE LAYER,ROW,COL MAX. CHANGE LAYER,ROW,COL MAX. CHANGE LAYER,ROW,COL MAX. CHANGE LAYER,ROW,COL MAX. CHANGE LAYER,ROW,COL
 ------------------------------------------------------------------------------------------------------------------------------------
   0.1816E-01 (  2,  1, 46)  0.6240E-03 (  2,  1, 77)  0.1903E-04 (  3,  1, 43)  0.9123E-06 (  3,  1, 45)  0.2565E-07 (  4,  1, 45)


                                          ================================================
                                                         FROM TIME =   5040.0     TO    5050.0    

 
 SOLVING FOR HEAD 
 FLOW MODEL IS TRANSIENT
 FLOW MODEL CONTAINS CONSTANT-HEAD CELLS


 MAXIMUM STEPSIZE DURING WHICH ANY PARTICLE CANNOT MOVE MORE THAN ONE CELL
 =  5.976    (WHEN MIN. R.F.=1)  AT K=   4, I=   1, J=  48

 MAXIMUM STEPSIZE WHICH MEETS STABILITY CRITERION OF THE ADVECTION TERM
 (FOR PURE FINITE-DIFFERENCE OPTION, MIXELM=0) 
 =  3.895    (WHEN MIN. R.F.=1)  AT K=   2, I=   1, J=  42


 TOTAL NUMBER OF POINT SOURCES/SINKS PRESENT IN THE FLOW MODEL =    62

 MAXIMUM STEPSIZE WHICH MEETS STABILITY CRITERION OF THE SINK & SOURCE TERM
 =  335.7    (WHEN MIN. R.F.=1)  AT K=   2, I=   1, J=   1

 MAXIMUM STEPSIZE WHICH MEETS STABILITY CRITERION OF THE DISPERSION TERM
 =  20.29    (WHEN MIN. R.F.=1)  AT K=   1, I=   1, J=  31


     1 CALLS TO GCG PACKAGE FOR TRANSPORT TIME STEP   1 IN FLOW TIME STEP 505 STRESS PERIOD   1
     6 TOTAL ITERATIONS

 NO OUTPUT CONTROL FOR STRESS PERIOD    1   TIME STEP 505
 
 SOLVING FOR HEAD 
 FLOW MODEL IS TRANSIENT
 FLOW MODEL CONTAINS CONSTANT-HEAD CELLS


 MAXIMUM STEPSIZE DURING WHICH ANY PARTICLE CANNOT MOVE MORE THAN ONE CELL
 =  5.966    (WHEN MIN. R.F.=1)  AT K=   4, I=   1, J=  48

 MAXIMUM STEPSIZE WHICH MEETS STABILITY CRITERION OF THE ADVECTION TERM
 (FOR PURE FINITE-DIFFERENCE OPTION, MIXELM=0) 
 =  3.833    (WHEN MIN. R.F.=1)  AT K=   2, I=   1, J=  77


 TOTAL NUMBER OF POINT SOURCES/SINKS PRESENT IN THE FLOW MODEL =    62

 MAXIMUM STEPSIZE WHICH MEETS STABILITY CRITERION OF THE SINK & SOURCE TERM
 =  314.1    (WHEN MIN. R.F.=1)  AT K=   2, I=   1, J=   1

 MAXIMUM STEPSIZE WHICH MEETS STABILITY CRITERION OF THE DISPERSION TERM
 =  20.29    (WHEN MIN. R.F.=1)  AT K=   1, I=   1, J=  31
     1 CALLS TO GCG PACKAGE FOR TRANSPORT TIME STEP   2 IN FLOW TIME STEP 505 STRESS PERIOD   1
     6 TOTAL ITERATIONS
 
 SOLVING FOR HEAD 
 FLOW MODEL IS TRANSIENT
 FLOW MODEL CONTAINS CONSTANT-HEAD CELLS


 MAXIMUM STEPSIZE DURING WHICH ANY PARTICLE CANNOT MOVE MORE THAN ONE CELL
 =  5.978    (WHEN MIN. R.F.=1)  AT K=   4, I=   1, J=  48

 MAXIMUM STEPSIZE WHICH MEETS STABILITY CRITERION OF THE ADVECTION TERM
 (FOR PURE FINITE-DIFFERENCE OPTION, MIXELM=0) 
 =  3.839    (WHEN MIN. R.F.=1)  AT K=   2, I=   1, J=  43


 TOTAL NUMBER OF POINT SOURCES/SINKS PRESENT IN THE FLOW MODEL =    62

 MAXIMUM STEPSIZE WHICH MEETS STABILITY CRITERION OF THE SINK & SOURCE TERM
 =  314.9    (WHEN MIN. R.F.=1)  AT K=   2, I=   1, J=   1

 MAXIMUM STEPSIZE WHICH MEETS STABILITY CRITERION OF THE DISPERSION TERM
 =  20.29    (WHEN MIN. R.F.=1)  AT K=   1, I=   1, J=  31
     1 CALLS TO GCG PACKAGE FOR TRANSPORT TIME STEP   3 IN FLOW TIME STEP 505 STRESS PERIOD   1
     6 TOTAL ITERATIONS
 
 SOLVING FOR HEAD 
 FLOW MODEL IS TRANSIENT
 FLOW MODEL CONTAINS CONSTANT-HEAD CELLS


 MAXIMUM STEPSIZE DURING WHICH ANY PARTICLE CANNOT MOVE MORE THAN ONE CELL
 =  6.012    (WHEN MIN. R.F.=1)  AT K=   4, I=   1, J=  48

 MAXIMUM STEPSIZE WHICH MEETS STABILITY CRITERION OF THE ADVECTION TERM
 (FOR PURE FINITE-DIFFERENCE OPTION, MIXELM=0) 
 =  3.758    (WHEN MIN. R.F.=1)  AT K=   2, I=   1, J=  43


 TOTAL NUMBER OF POINT SOURCES/SINKS PRESENT IN THE FLOW MODEL =    62

 MAXIMUM STEPSIZE WHICH MEETS STABILITY CRITERION OF THE SINK & SOURCE TERM
 =  314.9    (WHEN MIN. R.F.=1)  AT K=   2, I=   1, J=   1

 MAXIMUM STEPSIZE WHICH MEETS STABILITY CRITERION OF THE DISPERSION TERM
 =  20.29    (WHEN MIN. R.F.=1)  AT K=   1, I=   1, J=  31
     1 CALLS TO GCG PACKAGE FOR TRANSPORT TIME STEP   4 IN FLOW TIME STEP 505 STRESS PERIOD   1
     5 TOTAL ITERATIONS
  MAXIMUM CONCENTRATION CHANGES FOR EACH ITERATION:
  MAX. CHANGE LAYER,ROW,COL MAX. CHANGE LAYER,ROW,COL MAX. CHANGE LAYER,ROW,COL MAX. CHANGE LAYER,ROW,COL MAX. CHANGE LAYER,ROW,COL
 ------------------------------------------------------------------------------------------------------------------------------------
   0.1722E-01 (  2,  1, 78)  0.3544E-03 (  2,  1, 75)  0.1070E-04 (  2,  1, 79)  0.3711E-06 (  3,  1, 79)  0.7544E-08 (  4,  1, 75)


                                          ================================================
                                                         FROM TIME =   5050.0     TO    5060.0    

 
 SOLVING FOR HEAD 
 FLOW MODEL IS TRANSIENT
 FLOW MODEL CONTAINS CONSTANT-HEAD CELLS


 MAXIMUM STEPSIZE DURING WHICH ANY PARTICLE CANNOT MOVE MORE THAN ONE CELL
 =  6.040    (WHEN MIN. R.F.=1)  AT K=   4, I=   1, J=  48

 MAXIMUM STEPSIZE WHICH MEETS STABILITY CRITERION OF THE ADVECTION TERM
 (FOR PURE FINITE-DIFFERENCE OPTION, MIXELM=0) 
 =  3.766    (WHEN MIN. R.F.=1)  AT K=   2, I=   1, J=  43


 TOTAL NUMBER OF POINT SOURCES/SINKS PRESENT IN THE FLOW MODEL =    62

 MAXIMUM STEPSIZE WHICH MEETS STABILITY CRITERION OF THE SINK & SOURCE TERM
 =  323.6    (WHEN MIN. R.F.=1)  AT K=   2, I=   1, J=   1

 MAXIMUM STEPSIZE WHICH MEETS STABILITY CRITERION OF THE DISPERSION TERM
 =  20.29    (WHEN MIN. R.F.=1)  AT K=   1, I=   1, J=  31


     1 CALLS TO GCG PACKAGE FOR TRANSPORT TIME STEP   1 IN FLOW TIME STEP 506 STRESS PERIOD   1
     6 TOTAL ITERATIONS

 NO OUTPUT CONTROL FOR STRESS PERIOD    1   TIME STEP 506
 
 SOLVING FOR HEAD 
 FLOW MODEL IS TRANSIENT
 FLOW MODEL CONTAINS CONSTANT-HEAD CELLS


 MAXIMUM STEPSIZE DURING WHICH ANY PARTICLE CANNOT MOVE MORE THAN ONE CELL
 =  6.080    (WHEN MIN. R.F.=1)  AT K=   4, I=   1, J=  60

 MAXIMUM STEPSIZE WHICH MEETS STABILITY CRITERION OF THE ADVECTION TERM
 (FOR PURE FINITE-DIFFERENCE OPTION, MIXELM=0) 
 =  3.851    (WHEN MIN. R.F.=1)  AT K=   2, I=   1, J=  43


 TOTAL NUMBER OF POINT SOURCES/SINKS PRESENT IN THE FLOW MODEL =    62

 MAXIMUM STEPSIZE WHICH MEETS STABILITY CRITERION OF THE SINK & SOURCE TERM
 =  303.1    (WHEN MIN. R.F.=1)  AT K=   2, I=   1, J=   1

 MAXIMUM STEPSIZE WHICH MEETS STABILITY CRITERION OF THE DISPERSION TERM
 =  20.29    (WHEN MIN. R.F.=1)  AT K=   1, I=   1, J=  31
     1 CALLS TO GCG PACKAGE FOR TRANSPORT TIME STEP   2 IN FLOW TIME STEP 506 STRESS PERIOD   1
     6 TOTAL ITERATIONS
 
 SOLVING FOR HEAD 
 FLOW MODEL IS TRANSIENT
 FLOW MODEL CONTAINS CONSTANT-HEAD CELLS


 MAXIMUM STEPSIZE DURING WHICH ANY PARTICLE CANNOT MOVE MORE THAN ONE CELL
 =  6.078    (WHEN MIN. R.F.=1)  AT K=   4, I=   1, J=  60

 MAXIMUM STEPSIZE WHICH MEETS STABILITY CRITERION OF THE ADVECTION TERM
 (FOR PURE FINITE-DIFFERENCE OPTION, MIXELM=0) 
 =  4.089    (WHEN MIN. R.F.=1)  AT K=   2, I=   1, J=  43


 TOTAL NUMBER OF POINT SOURCES/SINKS PRESENT IN THE FLOW MODEL =    62

 MAXIMUM STEPSIZE WHICH MEETS STABILITY CRITERION OF THE SINK & SOURCE TERM
 =  299.5    (WHEN MIN. R.F.=1)  AT K=   2, I=   1, J=   1

 MAXIMUM STEPSIZE WHICH MEETS STABILITY CRITERION OF THE DISPERSION TERM
 =  20.29    (WHEN MIN. R.F.=1)  AT K=   1, I=   1, J=  31
     1 CALLS TO GCG PACKAGE FOR TRANSPORT TIME STEP   3 IN FLOW TIME STEP 506 STRESS PERIOD   1
     6 TOTAL ITERATIONS
 
 SOLVING FOR HEAD 
 FLOW MODEL IS TRANSIENT
 FLOW MODEL CONTAINS CONSTANT-HEAD CELLS


 MAXIMUM STEPSIZE DURING WHICH ANY PARTICLE CANNOT MOVE MORE THAN ONE CELL
 =  6.077    (WHEN MIN. R.F.=1)  AT K=   4, I=   1, J=  60

 MAXIMUM STEPSIZE WHICH MEETS STABILITY CRITERION OF THE ADVECTION TERM
 (FOR PURE FINITE-DIFFERENCE OPTION, MIXELM=0) 
 =  4.172    (WHEN MIN. R.F.=1)  AT K=   2, I=   1, J=  44


 TOTAL NUMBER OF POINT SOURCES/SINKS PRESENT IN THE FLOW MODEL =    62

 MAXIMUM STEPSIZE WHICH MEETS STABILITY CRITERION OF THE SINK & SOURCE TERM
 =  297.1    (WHEN MIN. R.F.=1)  AT K=   2, I=   1, J=   1

 MAXIMUM STEPSIZE WHICH MEETS STABILITY CRITERION OF THE DISPERSION TERM
 =  20.29    (WHEN MIN. R.F.=1)  AT K=   1, I=   1, J=  31
     1 CALLS TO GCG PACKAGE FOR TRANSPORT TIME STEP   4 IN FLOW TIME STEP 506 STRESS PERIOD   1
     5 TOTAL ITERATIONS
  MAXIMUM CONCENTRATION CHANGES FOR EACH ITERATION:
  MAX. CHANGE LAYER,ROW,COL MAX. CHANGE LAYER,ROW,COL MAX. CHANGE LAYER,ROW,COL MAX. CHANGE LAYER,ROW,COL MAX. CHANGE LAYER,ROW,COL
 ------------------------------------------------------------------------------------------------------------------------------------
   0.1587E-01 (  2,  1, 42)  0.3892E-03 (  2,  1, 76)  0.1031E-04 (  3,  1, 46)  0.3449E-06 (  3,  1, 82)  0.1137E-07 (  3,  1, 33)


                                          ================================================
                                                         FROM TIME =   5060.0     TO    5070.0    

 
 SOLVING FOR HEAD 
 FLOW MODEL IS TRANSIENT
 FLOW MODEL CONTAINS CONSTANT-HEAD CELLS


 MAXIMUM STEPSIZE DURING WHICH ANY PARTICLE CANNOT MOVE MORE THAN ONE CELL
 =  6.079    (WHEN MIN. R.F.=1)  AT K=   4, I=   1, J=  60

 MAXIMUM STEPSIZE WHICH MEETS STABILITY CRITERION OF THE ADVECTION TERM
 (FOR PURE FINITE-DIFFERENCE OPTION, MIXELM=0) 
 =  4.058    (WHEN MIN. R.F.=1)  AT K=   2, I=   1, J=  44


 TOTAL NUMBER OF POINT SOURCES/SINKS PRESENT IN THE FLOW MODEL =    62

 MAXIMUM STEPSIZE WHICH MEETS STABILITY CRITERION OF THE SINK & SOURCE TERM
 =  298.7    (WHEN MIN. R.F.=1)  AT K=   2, I=   1, J=   1

 MAXIMUM STEPSIZE WHICH MEETS STABILITY CRITERION OF THE DISPERSION TERM
 =  20.29    (WHEN MIN. R.F.=1)  AT K=   1, I=   1, J=  31


     1 CALLS TO GCG PACKAGE FOR TRANSPORT TIME STEP   1 IN FLOW TIME STEP 507 STRESS PERIOD   1
     6 TOTAL ITERATIONS

 NO OUTPUT CONTROL FOR STRESS PERIOD    1   TIME STEP 507
 
 SOLVING FOR HEAD 
 FLOW MODEL IS TRANSIENT
 FLOW MODEL CONTAINS CONSTANT-HEAD CELLS


 MAXIMUM STEPSIZE DURING WHICH ANY PARTICLE CANNOT MOVE MORE THAN ONE CELL
 =  6.077    (WHEN MIN. R.F.=1)  AT K=   4, I=   1, J=  60

 MAXIMUM STEPSIZE WHICH MEETS STABILITY CRITERION OF THE ADVECTION TERM
 (FOR PURE FINITE-DIFFERENCE OPTION, MIXELM=0) 
 =  3.924    (WHEN MIN. R.F.=1)  AT K=   2, I=   1, J=  44


 TOTAL NUMBER OF POINT SOURCES/SINKS PRESENT IN THE FLOW MODEL =    62

 MAXIMUM STEPSIZE WHICH MEETS STABILITY CRITERION OF THE SINK & SOURCE TERM
 =  281.3    (WHEN MIN. R.F.=1)  AT K=   2, I=   1, J=   1

 MAXIMUM STEPSIZE WHICH MEETS STABILITY CRITERION OF THE DISPERSION TERM
 =  20.29    (WHEN MIN. R.F.=1)  AT K=   1, I=   1, J=  31
     1 CALLS TO GCG PACKAGE FOR TRANSPORT TIME STEP   2 IN FLOW TIME STEP 507 STRESS PERIOD   1
     6 TOTAL ITERATIONS
 
 SOLVING FOR HEAD 
 FLOW MODEL IS TRANSIENT
 FLOW MODEL CONTAINS CONSTANT-HEAD CELLS


 MAXIMUM STEPSIZE DURING WHICH ANY PARTICLE CANNOT MOVE MORE THAN ONE CELL
 =  6.075    (WHEN MIN. R.F.=1)  AT K=   4, I=   1, J=  60

 MAXIMUM STEPSIZE WHICH MEETS STABILITY CRITERION OF THE ADVECTION TERM
 (FOR PURE FINITE-DIFFERENCE OPTION, MIXELM=0) 
 =  3.948    (WHEN MIN. R.F.=1)  AT K=   2, I=   1, J=  44


 TOTAL NUMBER OF POINT SOURCES/SINKS PRESENT IN THE FLOW MODEL =    62

 MAXIMUM STEPSIZE WHICH MEETS STABILITY CRITERION OF THE SINK & SOURCE TERM
 =  281.3    (WHEN MIN. R.F.=1)  AT K=   2, I=   1, J=   1

 MAXIMUM STEPSIZE WHICH MEETS STABILITY CRITERION OF THE DISPERSION TERM
 =  20.29    (WHEN MIN. R.F.=1)  AT K=   1, I=   1, J=  31
     1 CALLS TO GCG PACKAGE FOR TRANSPORT TIME STEP   3 IN FLOW TIME STEP 507 STRESS PERIOD   1
     6 TOTAL ITERATIONS
 
 SOLVING FOR HEAD 
 FLOW MODEL IS TRANSIENT
 FLOW MODEL CONTAINS CONSTANT-HEAD CELLS


 MAXIMUM STEPSIZE DURING WHICH ANY PARTICLE CANNOT MOVE MORE THAN ONE CELL
 =  6.076    (WHEN MIN. R.F.=1)  AT K=   4, I=   1, J=  60

 MAXIMUM STEPSIZE WHICH MEETS STABILITY CRITERION OF THE ADVECTION TERM
 (FOR PURE FINITE-DIFFERENCE OPTION, MIXELM=0) 
 =  4.075    (WHEN MIN. R.F.=1)  AT K=   2, I=   1, J=  44


 TOTAL NUMBER OF POINT SOURCES/SINKS PRESENT IN THE FLOW MODEL =    62

 MAXIMUM STEPSIZE WHICH MEETS STABILITY CRITERION OF THE SINK & SOURCE TERM
 =  283.7    (WHEN MIN. R.F.=1)  AT K=   2, I=   1, J=   1

 MAXIMUM STEPSIZE WHICH MEETS STABILITY CRITERION OF THE DISPERSION TERM
 =  20.29    (WHEN MIN. R.F.=1)  AT K=   1, I=   1, J=  31
     1 CALLS TO GCG PACKAGE FOR TRANSPORT TIME STEP   4 IN FLOW TIME STEP 507 STRESS PERIOD   1
     4 TOTAL ITERATIONS
  MAXIMUM CONCENTRATION CHANGES FOR EACH ITERATION:
  MAX. CHANGE LAYER,ROW,COL MAX. CHANGE LAYER,ROW,COL MAX. CHANGE LAYER,ROW,COL MAX. CHANGE LAYER,ROW,COL MAX. CHANGE LAYER,ROW,COL
 ------------------------------------------------------------------------------------------------------------------------------------
   0.1043E-01 (  2,  1, 77)  0.1394E-03 (  2,  1, 46)  0.2478E-05 (  2,  1, 78)  0.5945E-07 (  3,  1, 78)


                                          ================================================
                                                         FROM TIME =   5070.0     TO    5080.0    

 
 SOLVING FOR HEAD 
 FLOW MODEL IS TRANSIENT
 FLOW MODEL CONTAINS CONSTANT-HEAD CELLS


 MAXIMUM STEPSIZE DURING WHICH ANY PARTICLE CANNOT MOVE MORE THAN ONE CELL
 =  6.080    (WHEN MIN. R.F.=1)  AT K=   4, I=   1, J=  60

 MAXIMUM STEPSIZE WHICH MEETS STABILITY CRITERION OF THE ADVECTION TERM
 (FOR PURE FINITE-DIFFERENCE OPTION, MIXELM=0) 
 =  4.148    (WHEN MIN. R.F.=1)  AT K=   2, I=   1, J=  44


 TOTAL NUMBER OF POINT SOURCES/SINKS PRESENT IN THE FLOW MODEL =    62

 MAXIMUM STEPSIZE WHICH MEETS STABILITY CRITERION OF THE SINK & SOURCE TERM
 =  278.5    (WHEN MIN. R.F.=1)  AT K=   2, I=   1, J=   1

 MAXIMUM STEPSIZE WHICH MEETS STABILITY CRITERION OF THE DISPERSION TERM
 =  20.29    (WHEN MIN. R.F.=1)  AT K=   1, I=   1, J=  31


     1 CALLS TO GCG PACKAGE FOR TRANSPORT TIME STEP   1 IN FLOW TIME STEP 508 STRESS PERIOD   1
     6 TOTAL ITERATIONS

 NO OUTPUT CONTROL FOR STRESS PERIOD    1   TIME STEP 508
 
 SOLVING FOR HEAD 
 FLOW MODEL IS TRANSIENT
 FLOW MODEL CONTAINS CONSTANT-HEAD CELLS


 MAXIMUM STEPSIZE DURING WHICH ANY PARTICLE CANNOT MOVE MORE THAN ONE CELL
 =  6.082    (WHEN MIN. R.F.=1)  AT K=   4, I=   1, J=  60

 MAXIMUM STEPSIZE WHICH MEETS STABILITY CRITERION OF THE ADVECTION TERM
 (FOR PURE FINITE-DIFFERENCE OPTION, MIXELM=0) 
 =  4.523    (WHEN MIN. R.F.=1)  AT K=   2, I=   1, J=  44


 TOTAL NUMBER OF POINT SOURCES/SINKS PRESENT IN THE FLOW MODEL =    62

 MAXIMUM STEPSIZE WHICH MEETS STABILITY CRITERION OF THE SINK & SOURCE TERM
 =  255.7    (WHEN MIN. R.F.=1)  AT K=   2, I=   1, J=   1

 MAXIMUM STEPSIZE WHICH MEETS STABILITY CRITERION OF THE DISPERSION TERM
 =  20.29    (WHEN MIN. R.F.=1)  AT K=   1, I=   1, J=  31
     1 CALLS TO GCG PACKAGE FOR TRANSPORT TIME STEP   2 IN FLOW TIME STEP 508 STRESS PERIOD   1
     6 TOTAL ITERATIONS
 
 SOLVING FOR HEAD 
 FLOW MODEL IS TRANSIENT
 FLOW MODEL CONTAINS CONSTANT-HEAD CELLS


 MAXIMUM STEPSIZE DURING WHICH ANY PARTICLE CANNOT MOVE MORE THAN ONE CELL
 =  6.084    (WHEN MIN. R.F.=1)  AT K=   4, I=   1, J=  60

 MAXIMUM STEPSIZE WHICH MEETS STABILITY CRITERION OF THE ADVECTION TERM
 (FOR PURE FINITE-DIFFERENCE OPTION, MIXELM=0) 
 =  4.468    (WHEN MIN. R.F.=1)  AT K=   2, I=   1, J=  75


 TOTAL NUMBER OF POINT SOURCES/SINKS PRESENT IN THE FLOW MODEL =    62

 MAXIMUM STEPSIZE WHICH MEETS STABILITY CRITERION OF THE SINK & SOURCE TERM
 =  245.4    (WHEN MIN. R.F.=1)  AT K=   2, I=   1, J=   1

 MAXIMUM STEPSIZE WHICH MEETS STABILITY CRITERION OF THE DISPERSION TERM
 =  20.29    (WHEN MIN. R.F.=1)  AT K=   1, I=   1, J=  31
     1 CALLS TO GCG PACKAGE FOR TRANSPORT TIME STEP   3 IN FLOW TIME STEP 508 STRESS PERIOD   1
     6 TOTAL ITERATIONS
 
 SOLVING FOR HEAD 
 FLOW MODEL IS TRANSIENT
 FLOW MODEL CONTAINS CONSTANT-HEAD CELLS


 MAXIMUM STEPSIZE DURING WHICH ANY PARTICLE CANNOT MOVE MORE THAN ONE CELL
 =  5.802    (WHEN MIN. R.F.=1)  AT K=   4, I=   1, J=  74

 MAXIMUM STEPSIZE WHICH MEETS STABILITY CRITERION OF THE ADVECTION TERM
 (FOR PURE FINITE-DIFFERENCE OPTION, MIXELM=0) 
 =  4.294    (WHEN MIN. R.F.=1)  AT K=   2, I=   1, J=  45


 TOTAL NUMBER OF POINT SOURCES/SINKS PRESENT IN THE FLOW MODEL =    62

 MAXIMUM STEPSIZE WHICH MEETS STABILITY CRITERION OF THE SINK & SOURCE TERM
 =  253.6    (WHEN MIN. R.F.=1)  AT K=   2, I=   1, J=   1

 MAXIMUM STEPSIZE WHICH MEETS STABILITY CRITERION OF THE DISPERSION TERM
 =  20.29    (WHEN MIN. R.F.=1)  AT K=   1, I=   1, J=  31
     1 CALLS TO GCG PACKAGE FOR TRANSPORT TIME STEP   4 IN FLOW TIME STEP 508 STRESS PERIOD   1
     4 TOTAL ITERATIONS
  MAXIMUM CONCENTRATION CHANGES FOR EACH ITERATION:
  MAX. CHANGE LAYER,ROW,COL MAX. CHANGE LAYER,ROW,COL MAX. CHANGE LAYER,ROW,COL MAX. CHANGE LAYER,ROW,COL MAX. CHANGE LAYER,ROW,COL
 ------------------------------------------------------------------------------------------------------------------------------------
   0.5224E-02 (  2,  1, 83)  0.3439E-04 (  3,  1, 78)  0.3225E-06 (  2,  1, 77)  0.4204E-08 (  3,  1, 77)


                                          ================================================
                                                         FROM TIME =   5080.0     TO    5090.0    

 
 SOLVING FOR HEAD 
 FLOW MODEL IS TRANSIENT
 FLOW MODEL CONTAINS CONSTANT-HEAD CELLS


 MAXIMUM STEPSIZE DURING WHICH ANY PARTICLE CANNOT MOVE MORE THAN ONE CELL
 =  5.749    (WHEN MIN. R.F.=1)  AT K=   4, I=   1, J=  74

 MAXIMUM STEPSIZE WHICH MEETS STABILITY CRITERION OF THE ADVECTION TERM
 (FOR PURE FINITE-DIFFERENCE OPTION, MIXELM=0) 
 =  4.281    (WHEN MIN. R.F.=1)  AT K=   2, I=   1, J=  81


 TOTAL NUMBER OF POINT SOURCES/SINKS PRESENT IN THE FLOW MODEL =    62

 MAXIMUM STEPSIZE WHICH MEETS STABILITY CRITERION OF THE SINK & SOURCE TERM
 =  260.7    (WHEN MIN. R.F.=1)  AT K=   2, I=   1, J=   1

 MAXIMUM STEPSIZE WHICH MEETS STABILITY CRITERION OF THE DISPERSION TERM
 =  20.29    (WHEN MIN. R.F.=1)  AT K=   1, I=   1, J=  31


     1 CALLS TO GCG PACKAGE FOR TRANSPORT TIME STEP   1 IN FLOW TIME STEP 509 STRESS PERIOD   1
     6 TOTAL ITERATIONS

 NO OUTPUT CONTROL FOR STRESS PERIOD    1   TIME STEP 509
 
 SOLVING FOR HEAD 
 FLOW MODEL IS TRANSIENT
 FLOW MODEL CONTAINS CONSTANT-HEAD CELLS


 MAXIMUM STEPSIZE DURING WHICH ANY PARTICLE CANNOT MOVE MORE THAN ONE CELL
 =  5.430    (WHEN MIN. R.F.=1)  AT K=   4, I=   1, J=  74

 MAXIMUM STEPSIZE WHICH MEETS STABILITY CRITERION OF THE ADVECTION TERM
 (FOR PURE FINITE-DIFFERENCE OPTION, MIXELM=0) 
 =  3.960    (WHEN MIN. R.F.=1)  AT K=   2, I=   1, J=  81


 TOTAL NUMBER OF POINT SOURCES/SINKS PRESENT IN THE FLOW MODEL =    62

 MAXIMUM STEPSIZE WHICH MEETS STABILITY CRITERION OF THE SINK & SOURCE TERM
 =  241.6    (WHEN MIN. R.F.=1)  AT K=   2, I=   1, J=   1

 MAXIMUM STEPSIZE WHICH MEETS STABILITY CRITERION OF THE DISPERSION TERM
 =  20.29    (WHEN MIN. R.F.=1)  AT K=   1, I=   1, J=  31
     1 CALLS TO GCG PACKAGE FOR TRANSPORT TIME STEP   2 IN FLOW TIME STEP 509 STRESS PERIOD   1
     6 TOTAL ITERATIONS
 
 SOLVING FOR HEAD 
 FLOW MODEL IS TRANSIENT
 FLOW MODEL CONTAINS CONSTANT-HEAD CELLS


 MAXIMUM STEPSIZE DURING WHICH ANY PARTICLE CANNOT MOVE MORE THAN ONE CELL
 =  5.200    (WHEN MIN. R.F.=1)  AT K=   4, I=   1, J=  74

 MAXIMUM STEPSIZE WHICH MEETS STABILITY CRITERION OF THE ADVECTION TERM
 (FOR PURE FINITE-DIFFERENCE OPTION, MIXELM=0) 
 =  3.863    (WHEN MIN. R.F.=1)  AT K=   2, I=   1, J=  81


 TOTAL NUMBER OF POINT SOURCES/SINKS PRESENT IN THE FLOW MODEL =    62

 MAXIMUM STEPSIZE WHICH MEETS STABILITY CRITERION OF THE SINK & SOURCE TERM
 =  234.9    (WHEN MIN. R.F.=1)  AT K=   2, I=   1, J=   1

 MAXIMUM STEPSIZE WHICH MEETS STABILITY CRITERION OF THE DISPERSION TERM
 =  20.29    (WHEN MIN. R.F.=1)  AT K=   1, I=   1, J=  31
     1 CALLS TO GCG PACKAGE FOR TRANSPORT TIME STEP   3 IN FLOW TIME STEP 509 STRESS PERIOD   1
     6 TOTAL ITERATIONS
 
 SOLVING FOR HEAD 
 FLOW MODEL IS TRANSIENT
 FLOW MODEL CONTAINS CONSTANT-HEAD CELLS


 MAXIMUM STEPSIZE DURING WHICH ANY PARTICLE CANNOT MOVE MORE THAN ONE CELL
 =  5.058    (WHEN MIN. R.F.=1)  AT K=   4, I=   1, J=  74

 MAXIMUM STEPSIZE WHICH MEETS STABILITY CRITERION OF THE ADVECTION TERM
 (FOR PURE FINITE-DIFFERENCE OPTION, MIXELM=0) 
 =  4.015    (WHEN MIN. R.F.=1)  AT K=   2, I=   1, J=  81


 TOTAL NUMBER OF POINT SOURCES/SINKS PRESENT IN THE FLOW MODEL =    62

 MAXIMUM STEPSIZE WHICH MEETS STABILITY CRITERION OF THE SINK & SOURCE TERM
 =  234.9    (WHEN MIN. R.F.=1)  AT K=   2, I=   1, J=   1

 MAXIMUM STEPSIZE WHICH MEETS STABILITY CRITERION OF THE DISPERSION TERM
 =  20.29    (WHEN MIN. R.F.=1)  AT K=   1, I=   1, J=  31
     1 CALLS TO GCG PACKAGE FOR TRANSPORT TIME STEP   4 IN FLOW TIME STEP 509 STRESS PERIOD   1
     4 TOTAL ITERATIONS
  MAXIMUM CONCENTRATION CHANGES FOR EACH ITERATION:
  MAX. CHANGE LAYER,ROW,COL MAX. CHANGE LAYER,ROW,COL MAX. CHANGE LAYER,ROW,COL MAX. CHANGE LAYER,ROW,COL MAX. CHANGE LAYER,ROW,COL
 ------------------------------------------------------------------------------------------------------------------------------------
   0.7771E-02 (  2,  1, 82)  0.6764E-04 (  2,  1, 82)  0.9850E-06 (  3,  1, 80)  0.1230E-07 (  4,  1, 80)


                                          ================================================
                                                         FROM TIME =   5090.0     TO    5100.0    

 
 SOLVING FOR HEAD 
 FLOW MODEL IS TRANSIENT
 FLOW MODEL CONTAINS CONSTANT-HEAD CELLS


 MAXIMUM STEPSIZE DURING WHICH ANY PARTICLE CANNOT MOVE MORE THAN ONE CELL
 =  5.037    (WHEN MIN. R.F.=1)  AT K=   4, I=   1, J=  74

 MAXIMUM STEPSIZE WHICH MEETS STABILITY CRITERION OF THE ADVECTION TERM
 (FOR PURE FINITE-DIFFERENCE OPTION, MIXELM=0) 
 =  4.090    (WHEN MIN. R.F.=1)  AT K=   2, I=   1, J=  81


 TOTAL NUMBER OF POINT SOURCES/SINKS PRESENT IN THE FLOW MODEL =    62

 MAXIMUM STEPSIZE WHICH MEETS STABILITY CRITERION OF THE SINK & SOURCE TERM
 =  228.3    (WHEN MIN. R.F.=1)  AT K=   2, I=   1, J=   1

 MAXIMUM STEPSIZE WHICH MEETS STABILITY CRITERION OF THE DISPERSION TERM
 =  20.29    (WHEN MIN. R.F.=1)  AT K=   1, I=   1, J=  31


     1 CALLS TO GCG PACKAGE FOR TRANSPORT TIME STEP   1 IN FLOW TIME STEP 510 STRESS PERIOD   1
     6 TOTAL ITERATIONS

 NO OUTPUT CONTROL FOR STRESS PERIOD    1   TIME STEP 510
 
 SOLVING FOR HEAD 
 FLOW MODEL IS TRANSIENT
 FLOW MODEL CONTAINS CONSTANT-HEAD CELLS


 MAXIMUM STEPSIZE DURING WHICH ANY PARTICLE CANNOT MOVE MORE THAN ONE CELL
 =  4.973    (WHEN MIN. R.F.=1)  AT K=   4, I=   1, J=  74

 MAXIMUM STEPSIZE WHICH MEETS STABILITY CRITERION OF THE ADVECTION TERM
 (FOR PURE FINITE-DIFFERENCE OPTION, MIXELM=0) 
 =  3.775    (WHEN MIN. R.F.=1)  AT K=   2, I=   1, J=  80


 TOTAL NUMBER OF POINT SOURCES/SINKS PRESENT IN THE FLOW MODEL =    62

 MAXIMUM STEPSIZE WHICH MEETS STABILITY CRITERION OF THE SINK & SOURCE TERM
 =  212.0    (WHEN MIN. R.F.=1)  AT K=   2, I=   1, J=   1

 MAXIMUM STEPSIZE WHICH MEETS STABILITY CRITERION OF THE DISPERSION TERM
 =  20.29    (WHEN MIN. R.F.=1)  AT K=   1, I=   1, J=  31
     1 CALLS TO GCG PACKAGE FOR TRANSPORT TIME STEP   2 IN FLOW TIME STEP 510 STRESS PERIOD   1
     6 TOTAL ITERATIONS
 
 SOLVING FOR HEAD 
 FLOW MODEL IS TRANSIENT
 FLOW MODEL CONTAINS CONSTANT-HEAD CELLS


 MAXIMUM STEPSIZE DURING WHICH ANY PARTICLE CANNOT MOVE MORE THAN ONE CELL
 =  4.969    (WHEN MIN. R.F.=1)  AT K=   4, I=   1, J=  74

 MAXIMUM STEPSIZE WHICH MEETS STABILITY CRITERION OF THE ADVECTION TERM
 (FOR PURE FINITE-DIFFERENCE OPTION, MIXELM=0) 
 =  3.592    (WHEN MIN. R.F.=1)  AT K=   2, I=   1, J=  80


 TOTAL NUMBER OF POINT SOURCES/SINKS PRESENT IN THE FLOW MODEL =    62

 MAXIMUM STEPSIZE WHICH MEETS STABILITY CRITERION OF THE SINK & SOURCE TERM
 =  209.7    (WHEN MIN. R.F.=1)  AT K=   2, I=   1, J=   1

 MAXIMUM STEPSIZE WHICH MEETS STABILITY CRITERION OF THE DISPERSION TERM
 =  20.29    (WHEN MIN. R.F.=1)  AT K=   1, I=   1, J=  31
     1 CALLS TO GCG PACKAGE FOR TRANSPORT TIME STEP   3 IN FLOW TIME STEP 510 STRESS PERIOD   1
     6 TOTAL ITERATIONS
 
 SOLVING FOR HEAD 
 FLOW MODEL IS TRANSIENT
 FLOW MODEL CONTAINS CONSTANT-HEAD CELLS


 MAXIMUM STEPSIZE DURING WHICH ANY PARTICLE CANNOT MOVE MORE THAN ONE CELL
 =  5.016    (WHEN MIN. R.F.=1)  AT K=   4, I=   1, J=  74

 MAXIMUM STEPSIZE WHICH MEETS STABILITY CRITERION OF THE ADVECTION TERM
 (FOR PURE FINITE-DIFFERENCE OPTION, MIXELM=0) 
 =  3.599    (WHEN MIN. R.F.=1)  AT K=   2, I=   1, J=  80


 TOTAL NUMBER OF POINT SOURCES/SINKS PRESENT IN THE FLOW MODEL =    62

 MAXIMUM STEPSIZE WHICH MEETS STABILITY CRITERION OF THE SINK & SOURCE TERM
 =  213.6    (WHEN MIN. R.F.=1)  AT K=   2, I=   1, J=   1

 MAXIMUM STEPSIZE WHICH MEETS STABILITY CRITERION OF THE DISPERSION TERM
 =  20.29    (WHEN MIN. R.F.=1)  AT K=   1, I=   1, J=  31
     1 CALLS TO GCG PACKAGE FOR TRANSPORT TIME STEP   4 IN FLOW TIME STEP 510 STRESS PERIOD   1
     5 TOTAL ITERATIONS
  MAXIMUM CONCENTRATION CHANGES FOR EACH ITERATION:
  MAX. CHANGE LAYER,ROW,COL MAX. CHANGE LAYER,ROW,COL MAX. CHANGE LAYER,ROW,COL MAX. CHANGE LAYER,ROW,COL MAX. CHANGE LAYER,ROW,COL
 ------------------------------------------------------------------------------------------------------------------------------------
   0.1330E-01 (  2,  1, 81)  0.2044E-03 (  2,  1, 81)  0.6569E-05 (  3,  1, 79)  0.1467E-06 (  3,  1, 77)  0.2981E-08 (  4,  1, 77)


                                          ================================================
                                                         FROM TIME =   5100.0     TO    5110.0    

 
 SOLVING FOR HEAD 
 FLOW MODEL IS TRANSIENT
 FLOW MODEL CONTAINS CONSTANT-HEAD CELLS


 MAXIMUM STEPSIZE DURING WHICH ANY PARTICLE CANNOT MOVE MORE THAN ONE CELL
 =  5.050    (WHEN MIN. R.F.=1)  AT K=   4, I=   1, J=  74

 MAXIMUM STEPSIZE WHICH MEETS STABILITY CRITERION OF THE ADVECTION TERM
 (FOR PURE FINITE-DIFFERENCE OPTION, MIXELM=0) 
 =  3.673    (WHEN MIN. R.F.=1)  AT K=   2, I=   1, J=  80


 TOTAL NUMBER OF POINT SOURCES/SINKS PRESENT IN THE FLOW MODEL =    62

 MAXIMUM STEPSIZE WHICH MEETS STABILITY CRITERION OF THE SINK & SOURCE TERM
 =  221.1    (WHEN MIN. R.F.=1)  AT K=   2, I=   1, J=   1

 MAXIMUM STEPSIZE WHICH MEETS STABILITY CRITERION OF THE DISPERSION TERM
 =  20.29    (WHEN MIN. R.F.=1)  AT K=   1, I=   1, J=  31


     1 CALLS TO GCG PACKAGE FOR TRANSPORT TIME STEP   1 IN FLOW TIME STEP 511 STRESS PERIOD   1
     6 TOTAL ITERATIONS

 NO OUTPUT CONTROL FOR STRESS PERIOD    1   TIME STEP 511
 
 SOLVING FOR HEAD 
 FLOW MODEL IS TRANSIENT
 FLOW MODEL CONTAINS CONSTANT-HEAD CELLS


 MAXIMUM STEPSIZE DURING WHICH ANY PARTICLE CANNOT MOVE MORE THAN ONE CELL
 =  5.110    (WHEN MIN. R.F.=1)  AT K=   5, I=   1, J=  74

 MAXIMUM STEPSIZE WHICH MEETS STABILITY CRITERION OF THE ADVECTION TERM
 (FOR PURE FINITE-DIFFERENCE OPTION, MIXELM=0) 
 =  3.980    (WHEN MIN. R.F.=1)  AT K=   2, I=   1, J=  80


 TOTAL NUMBER OF POINT SOURCES/SINKS PRESENT IN THE FLOW MODEL =    62

 MAXIMUM STEPSIZE WHICH MEETS STABILITY CRITERION OF THE SINK & SOURCE TERM
 =  208.6    (WHEN MIN. R.F.=1)  AT K=   2, I=   1, J=   1

 MAXIMUM STEPSIZE WHICH MEETS STABILITY CRITERION OF THE DISPERSION TERM
 =  20.29    (WHEN MIN. R.F.=1)  AT K=   1, I=   1, J=  31
     1 CALLS TO GCG PACKAGE FOR TRANSPORT TIME STEP   2 IN FLOW TIME STEP 511 STRESS PERIOD   1
     6 TOTAL ITERATIONS
 
 SOLVING FOR HEAD 
 FLOW MODEL IS TRANSIENT
 FLOW MODEL CONTAINS CONSTANT-HEAD CELLS


 MAXIMUM STEPSIZE DURING WHICH ANY PARTICLE CANNOT MOVE MORE THAN ONE CELL
 =  5.188    (WHEN MIN. R.F.=1)  AT K=   5, I=   1, J=  74

 MAXIMUM STEPSIZE WHICH MEETS STABILITY CRITERION OF THE ADVECTION TERM
 (FOR PURE FINITE-DIFFERENCE OPTION, MIXELM=0) 
 =  3.704    (WHEN MIN. R.F.=1)  AT K=   2, I=   1, J=  79


 TOTAL NUMBER OF POINT SOURCES/SINKS PRESENT IN THE FLOW MODEL =    62

 MAXIMUM STEPSIZE WHICH MEETS STABILITY CRITERION OF THE SINK & SOURCE TERM
 =  207.6    (WHEN MIN. R.F.=1)  AT K=   2, I=   1, J=   1

 MAXIMUM STEPSIZE WHICH MEETS STABILITY CRITERION OF THE DISPERSION TERM
 =  20.29    (WHEN MIN. R.F.=1)  AT K=   1, I=   1, J=  31
     1 CALLS TO GCG PACKAGE FOR TRANSPORT TIME STEP   3 IN FLOW TIME STEP 511 STRESS PERIOD   1
     6 TOTAL ITERATIONS
 
 SOLVING FOR HEAD 
 FLOW MODEL IS TRANSIENT
 FLOW MODEL CONTAINS CONSTANT-HEAD CELLS


 MAXIMUM STEPSIZE DURING WHICH ANY PARTICLE CANNOT MOVE MORE THAN ONE CELL
 =  5.317    (WHEN MIN. R.F.=1)  AT K=   5, I=   1, J=  74

 MAXIMUM STEPSIZE WHICH MEETS STABILITY CRITERION OF THE ADVECTION TERM
 (FOR PURE FINITE-DIFFERENCE OPTION, MIXELM=0) 
 =  3.553    (WHEN MIN. R.F.=1)  AT K=   2, I=   1, J=  79


 TOTAL NUMBER OF POINT SOURCES/SINKS PRESENT IN THE FLOW MODEL =    62

 MAXIMUM STEPSIZE WHICH MEETS STABILITY CRITERION OF THE SINK & SOURCE TERM
 =  207.3    (WHEN MIN. R.F.=1)  AT K=   2, I=   1, J=   1

 MAXIMUM STEPSIZE WHICH MEETS STABILITY CRITERION OF THE DISPERSION TERM
 =  20.29    (WHEN MIN. R.F.=1)  AT K=   1, I=   1, J=  31
     1 CALLS TO GCG PACKAGE FOR TRANSPORT TIME STEP   4 IN FLOW TIME STEP 511 STRESS PERIOD   1
     5 TOTAL ITERATIONS
  MAXIMUM CONCENTRATION CHANGES FOR EACH ITERATION:
  MAX. CHANGE LAYER,ROW,COL MAX. CHANGE LAYER,ROW,COL MAX. CHANGE LAYER,ROW,COL MAX. CHANGE LAYER,ROW,COL MAX. CHANGE LAYER,ROW,COL
 ------------------------------------------------------------------------------------------------------------------------------------
   0.1717E-01 (  2,  1, 80)  0.4462E-03 (  2,  1, 80)  0.1556E-04 (  2,  1, 76)  0.8824E-06 (  3,  1, 76)  0.2440E-07 (  4,  1, 76)


                                          ================================================
                                                         FROM TIME =   5110.0     TO    5120.0    

 
 SOLVING FOR HEAD 
 FLOW MODEL IS TRANSIENT
 FLOW MODEL CONTAINS CONSTANT-HEAD CELLS


 MAXIMUM STEPSIZE DURING WHICH ANY PARTICLE CANNOT MOVE MORE THAN ONE CELL
 =  5.401    (WHEN MIN. R.F.=1)  AT K=   6, I=   1, J=  74

 MAXIMUM STEPSIZE WHICH MEETS STABILITY CRITERION OF THE ADVECTION TERM
 (FOR PURE FINITE-DIFFERENCE OPTION, MIXELM=0) 
 =  3.554    (WHEN MIN. R.F.=1)  AT K=   2, I=   1, J=  79


 TOTAL NUMBER OF POINT SOURCES/SINKS PRESENT IN THE FLOW MODEL =    62

 MAXIMUM STEPSIZE WHICH MEETS STABILITY CRITERION OF THE SINK & SOURCE TERM
 =  212.0    (WHEN MIN. R.F.=1)  AT K=   2, I=   1, J=   1

 MAXIMUM STEPSIZE WHICH MEETS STABILITY CRITERION OF THE DISPERSION TERM
 =  20.29    (WHEN MIN. R.F.=1)  AT K=   1, I=   1, J=  31


     1 CALLS TO GCG PACKAGE FOR TRANSPORT TIME STEP   1 IN FLOW TIME STEP 512 STRESS PERIOD   1
     6 TOTAL ITERATIONS

 NO OUTPUT CONTROL FOR STRESS PERIOD    1   TIME STEP 512
 
 SOLVING FOR HEAD 
 FLOW MODEL IS TRANSIENT
 FLOW MODEL CONTAINS CONSTANT-HEAD CELLS


 MAXIMUM STEPSIZE DURING WHICH ANY PARTICLE CANNOT MOVE MORE THAN ONE CELL
 =  5.501    (WHEN MIN. R.F.=1)  AT K=   6, I=   1, J=  74

 MAXIMUM STEPSIZE WHICH MEETS STABILITY CRITERION OF THE ADVECTION TERM
 (FOR PURE FINITE-DIFFERENCE OPTION, MIXELM=0) 
 =  3.632    (WHEN MIN. R.F.=1)  AT K=   2, I=   1, J=  79


 TOTAL NUMBER OF POINT SOURCES/SINKS PRESENT IN THE FLOW MODEL =    62

 MAXIMUM STEPSIZE WHICH MEETS STABILITY CRITERION OF THE SINK & SOURCE TERM
 =  207.5    (WHEN MIN. R.F.=1)  AT K=   2, I=   1, J=   1

 MAXIMUM STEPSIZE WHICH MEETS STABILITY CRITERION OF THE DISPERSION TERM
 =  20.29    (WHEN MIN. R.F.=1)  AT K=   1, I=   1, J=  31
     1 CALLS TO GCG PACKAGE FOR TRANSPORT TIME STEP   2 IN FLOW TIME STEP 512 STRESS PERIOD   1
     6 TOTAL ITERATIONS
 
 SOLVING FOR HEAD 
 FLOW MODEL IS TRANSIENT
 FLOW MODEL CONTAINS CONSTANT-HEAD CELLS


 MAXIMUM STEPSIZE DURING WHICH ANY PARTICLE CANNOT MOVE MORE THAN ONE CELL
 =  5.463    (WHEN MIN. R.F.=1)  AT K=   4, I=   1, J=  47

 MAXIMUM STEPSIZE WHICH MEETS STABILITY CRITERION OF THE ADVECTION TERM
 (FOR PURE FINITE-DIFFERENCE OPTION, MIXELM=0) 
 =  3.882    (WHEN MIN. R.F.=1)  AT K=   2, I=   1, J=  79


 TOTAL NUMBER OF POINT SOURCES/SINKS PRESENT IN THE FLOW MODEL =    62

 MAXIMUM STEPSIZE WHICH MEETS STABILITY CRITERION OF THE SINK & SOURCE TERM
 =  207.3    (WHEN MIN. R.F.=1)  AT K=   2, I=   1, J=   1

 MAXIMUM STEPSIZE WHICH MEETS STABILITY CRITERION OF THE DISPERSION TERM
 =  20.29    (WHEN MIN. R.F.=1)  AT K=   1, I=   1, J=  31
     1 CALLS TO GCG PACKAGE FOR TRANSPORT TIME STEP   3 IN FLOW TIME STEP 512 STRESS PERIOD   1
     6 TOTAL ITERATIONS
 
 SOLVING FOR HEAD 
 FLOW MODEL IS TRANSIENT
 FLOW MODEL CONTAINS CONSTANT-HEAD CELLS


 MAXIMUM STEPSIZE DURING WHICH ANY PARTICLE CANNOT MOVE MORE THAN ONE CELL
 =  5.473    (WHEN MIN. R.F.=1)  AT K=   4, I=   1, J=  47

 MAXIMUM STEPSIZE WHICH MEETS STABILITY CRITERION OF THE ADVECTION TERM
 (FOR PURE FINITE-DIFFERENCE OPTION, MIXELM=0) 
 =  3.858    (WHEN MIN. R.F.=1)  AT K=   2, I=   1, J=  41


 TOTAL NUMBER OF POINT SOURCES/SINKS PRESENT IN THE FLOW MODEL =    62

 MAXIMUM STEPSIZE WHICH MEETS STABILITY CRITERION OF THE SINK & SOURCE TERM
 =  210.5    (WHEN MIN. R.F.=1)  AT K=   2, I=   1, J=   1

 MAXIMUM STEPSIZE WHICH MEETS STABILITY CRITERION OF THE DISPERSION TERM
 =  20.29    (WHEN MIN. R.F.=1)  AT K=   1, I=   1, J=  31
     1 CALLS TO GCG PACKAGE FOR TRANSPORT TIME STEP   4 IN FLOW TIME STEP 512 STRESS PERIOD   1
     5 TOTAL ITERATIONS
  MAXIMUM CONCENTRATION CHANGES FOR EACH ITERATION:
  MAX. CHANGE LAYER,ROW,COL MAX. CHANGE LAYER,ROW,COL MAX. CHANGE LAYER,ROW,COL MAX. CHANGE LAYER,ROW,COL MAX. CHANGE LAYER,ROW,COL
 ------------------------------------------------------------------------------------------------------------------------------------
   0.2183E-01 (  2,  1, 80)  0.7759E-03 (  2,  1, 78)  0.2686E-04 (  3,  1, 78)  0.1082E-05 (  3,  1, 44)  0.3869E-07 (  4,  1, 44)


                                          ================================================
                                                         FROM TIME =   5120.0     TO    5130.0    

 
 SOLVING FOR HEAD 
 FLOW MODEL IS TRANSIENT
 FLOW MODEL CONTAINS CONSTANT-HEAD CELLS


 MAXIMUM STEPSIZE DURING WHICH ANY PARTICLE CANNOT MOVE MORE THAN ONE CELL
 =  5.541    (WHEN MIN. R.F.=1)  AT K=   4, I=   1, J=  47

 MAXIMUM STEPSIZE WHICH MEETS STABILITY CRITERION OF THE ADVECTION TERM
 (FOR PURE FINITE-DIFFERENCE OPTION, MIXELM=0) 
 =  3.760    (WHEN MIN. R.F.=1)  AT K=   2, I=   1, J=  78


 TOTAL NUMBER OF POINT SOURCES/SINKS PRESENT IN THE FLOW MODEL =    62

 MAXIMUM STEPSIZE WHICH MEETS STABILITY CRITERION OF THE SINK & SOURCE TERM
 =  217.1    (WHEN MIN. R.F.=1)  AT K=   2, I=   1, J=   1

 MAXIMUM STEPSIZE WHICH MEETS STABILITY CRITERION OF THE DISPERSION TERM
 =  20.29    (WHEN MIN. R.F.=1)  AT K=   1, I=   1, J=  31


     1 CALLS TO GCG PACKAGE FOR TRANSPORT TIME STEP   1 IN FLOW TIME STEP 513 STRESS PERIOD   1
     6 TOTAL ITERATIONS

 NO OUTPUT CONTROL FOR STRESS PERIOD    1   TIME STEP 513
 
 SOLVING FOR HEAD 
 FLOW MODEL IS TRANSIENT
 FLOW MODEL CONTAINS CONSTANT-HEAD CELLS


 MAXIMUM STEPSIZE DURING WHICH ANY PARTICLE CANNOT MOVE MORE THAN ONE CELL
 =  5.601    (WHEN MIN. R.F.=1)  AT K=   5, I=   1, J=  47

 MAXIMUM STEPSIZE WHICH MEETS STABILITY CRITERION OF THE ADVECTION TERM
 (FOR PURE FINITE-DIFFERENCE OPTION, MIXELM=0) 
 =  3.652    (WHEN MIN. R.F.=1)  AT K=   2, I=   1, J=  78


 TOTAL NUMBER OF POINT SOURCES/SINKS PRESENT IN THE FLOW MODEL =    62

 MAXIMUM STEPSIZE WHICH MEETS STABILITY CRITERION OF THE SINK & SOURCE TERM
 =  216.1    (WHEN MIN. R.F.=1)  AT K=   2, I=   1, J=   1

 MAXIMUM STEPSIZE WHICH MEETS STABILITY CRITERION OF THE DISPERSION TERM
 =  20.29    (WHEN MIN. R.F.=1)  AT K=   1, I=   1, J=  31
     1 CALLS TO GCG PACKAGE FOR TRANSPORT TIME STEP   2 IN FLOW TIME STEP 513 STRESS PERIOD   1
     6 TOTAL ITERATIONS
 
 SOLVING FOR HEAD 
 FLOW MODEL IS TRANSIENT
 FLOW MODEL CONTAINS CONSTANT-HEAD CELLS


 MAXIMUM STEPSIZE DURING WHICH ANY PARTICLE CANNOT MOVE MORE THAN ONE CELL
 =  5.704    (WHEN MIN. R.F.=1)  AT K=   5, I=   1, J=  47

 MAXIMUM STEPSIZE WHICH MEETS STABILITY CRITERION OF THE ADVECTION TERM
 (FOR PURE FINITE-DIFFERENCE OPTION, MIXELM=0) 
 =  3.675    (WHEN MIN. R.F.=1)  AT K=   2, I=   1, J=  78


 TOTAL NUMBER OF POINT SOURCES/SINKS PRESENT IN THE FLOW MODEL =    62

 MAXIMUM STEPSIZE WHICH MEETS STABILITY CRITERION OF THE SINK & SOURCE TERM
 =  222.9    (WHEN MIN. R.F.=1)  AT K=   2, I=   1, J=   1

 MAXIMUM STEPSIZE WHICH MEETS STABILITY CRITERION OF THE DISPERSION TERM
 =  20.29    (WHEN MIN. R.F.=1)  AT K=   1, I=   1, J=  31
     1 CALLS TO GCG PACKAGE FOR TRANSPORT TIME STEP   3 IN FLOW TIME STEP 513 STRESS PERIOD   1
     6 TOTAL ITERATIONS
 
 SOLVING FOR HEAD 
 FLOW MODEL IS TRANSIENT
 FLOW MODEL CONTAINS CONSTANT-HEAD CELLS


 MAXIMUM STEPSIZE DURING WHICH ANY PARTICLE CANNOT MOVE MORE THAN ONE CELL
 =  5.857    (WHEN MIN. R.F.=1)  AT K=   5, I=   1, J=  47

 MAXIMUM STEPSIZE WHICH MEETS STABILITY CRITERION OF THE ADVECTION TERM
 (FOR PURE FINITE-DIFFERENCE OPTION, MIXELM=0) 
 =  3.814    (WHEN MIN. R.F.=1)  AT K=   2, I=   1, J=  78


 TOTAL NUMBER OF POINT SOURCES/SINKS PRESENT IN THE FLOW MODEL =    62

 MAXIMUM STEPSIZE WHICH MEETS STABILITY CRITERION OF THE SINK & SOURCE TERM
 =  226.1    (WHEN MIN. R.F.=1)  AT K=   2, I=   1, J=   1

 MAXIMUM STEPSIZE WHICH MEETS STABILITY CRITERION OF THE DISPERSION TERM
 =  20.29    (WHEN MIN. R.F.=1)  AT K=   1, I=   1, J=  31
     1 CALLS TO GCG PACKAGE FOR TRANSPORT TIME STEP   4 IN FLOW TIME STEP 513 STRESS PERIOD   1
     5 TOTAL ITERATIONS
  MAXIMUM CONCENTRATION CHANGES FOR EACH ITERATION:
  MAX. CHANGE LAYER,ROW,COL MAX. CHANGE LAYER,ROW,COL MAX. CHANGE LAYER,ROW,COL MAX. CHANGE LAYER,ROW,COL MAX. CHANGE LAYER,ROW,COL
 ------------------------------------------------------------------------------------------------------------------------------------
   0.1970E-01 (  2,  1, 79)  0.4111E-03 (  2,  1, 77)  0.1354E-04 (  3,  1, 77)  0.6762E-06 (  3,  1, 45)  0.1968E-07 (  4,  1, 45)


                                          ================================================
                                                         FROM TIME =   5130.0     TO    5140.0    

 
 SOLVING FOR HEAD 
 FLOW MODEL IS TRANSIENT
 FLOW MODEL CONTAINS CONSTANT-HEAD CELLS


 MAXIMUM STEPSIZE DURING WHICH ANY PARTICLE CANNOT MOVE MORE THAN ONE CELL
 =  5.894    (WHEN MIN. R.F.=1)  AT K=   6, I=   1, J=  47

 MAXIMUM STEPSIZE WHICH MEETS STABILITY CRITERION OF THE ADVECTION TERM
 (FOR PURE FINITE-DIFFERENCE OPTION, MIXELM=0) 
 =  3.809    (WHEN MIN. R.F.=1)  AT K=   2, I=   1, J=  42


 TOTAL NUMBER OF POINT SOURCES/SINKS PRESENT IN THE FLOW MODEL =    62

 MAXIMUM STEPSIZE WHICH MEETS STABILITY CRITERION OF THE SINK & SOURCE TERM
 =  229.5    (WHEN MIN. R.F.=1)  AT K=   2, I=   1, J=   1

 MAXIMUM STEPSIZE WHICH MEETS STABILITY CRITERION OF THE DISPERSION TERM
 =  20.29    (WHEN MIN. R.F.=1)  AT K=   1, I=   1, J=  31


     1 CALLS TO GCG PACKAGE FOR TRANSPORT TIME STEP   1 IN FLOW TIME STEP 514 STRESS PERIOD   1
     6 TOTAL ITERATIONS

 NO OUTPUT CONTROL FOR STRESS PERIOD    1   TIME STEP 514
 
 SOLVING FOR HEAD 
 FLOW MODEL IS TRANSIENT
 FLOW MODEL CONTAINS CONSTANT-HEAD CELLS


 MAXIMUM STEPSIZE DURING WHICH ANY PARTICLE CANNOT MOVE MORE THAN ONE CELL
 =  6.007    (WHEN MIN. R.F.=1)  AT K=   6, I=   1, J=  47

 MAXIMUM STEPSIZE WHICH MEETS STABILITY CRITERION OF THE ADVECTION TERM
 (FOR PURE FINITE-DIFFERENCE OPTION, MIXELM=0) 
 =  3.721    (WHEN MIN. R.F.=1)  AT K=   2, I=   1, J=  42


 TOTAL NUMBER OF POINT SOURCES/SINKS PRESENT IN THE FLOW MODEL =    62

 MAXIMUM STEPSIZE WHICH MEETS STABILITY CRITERION OF THE SINK & SOURCE TERM
 =  224.3    (WHEN MIN. R.F.=1)  AT K=   2, I=   1, J=   1

 MAXIMUM STEPSIZE WHICH MEETS STABILITY CRITERION OF THE DISPERSION TERM
 =  20.29    (WHEN MIN. R.F.=1)  AT K=   1, I=   1, J=  31
     1 CALLS TO GCG PACKAGE FOR TRANSPORT TIME STEP   2 IN FLOW TIME STEP 514 STRESS PERIOD   1
     6 TOTAL ITERATIONS
 
 SOLVING FOR HEAD 
 FLOW MODEL IS TRANSIENT
 FLOW MODEL CONTAINS CONSTANT-HEAD CELLS


 MAXIMUM STEPSIZE DURING WHICH ANY PARTICLE CANNOT MOVE MORE THAN ONE CELL
 =  5.994    (WHEN MIN. R.F.=1)  AT K=   4, I=   1, J=  48

 MAXIMUM STEPSIZE WHICH MEETS STABILITY CRITERION OF THE ADVECTION TERM
 (FOR PURE FINITE-DIFFERENCE OPTION, MIXELM=0) 
 =  3.762    (WHEN MIN. R.F.=1)  AT K=   2, I=   1, J=  42


 TOTAL NUMBER OF POINT SOURCES/SINKS PRESENT IN THE FLOW MODEL =    62

 MAXIMUM STEPSIZE WHICH MEETS STABILITY CRITERION OF THE SINK & SOURCE TERM
 =  232.6    (WHEN MIN. R.F.=1)  AT K=   2, I=   1, J=   1

 MAXIMUM STEPSIZE WHICH MEETS STABILITY CRITERION OF THE DISPERSION TERM
 =  20.29    (WHEN MIN. R.F.=1)  AT K=   1, I=   1, J=  31
     1 CALLS TO GCG PACKAGE FOR TRANSPORT TIME STEP   3 IN FLOW TIME STEP 514 STRESS PERIOD   1
     6 TOTAL ITERATIONS
 
 SOLVING FOR HEAD 
 FLOW MODEL IS TRANSIENT
 FLOW MODEL CONTAINS CONSTANT-HEAD CELLS


 MAXIMUM STEPSIZE DURING WHICH ANY PARTICLE CANNOT MOVE MORE THAN ONE CELL
 =  5.968    (WHEN MIN. R.F.=1)  AT K=   4, I=   1, J=  48

 MAXIMUM STEPSIZE WHICH MEETS STABILITY CRITERION OF THE ADVECTION TERM
 (FOR PURE FINITE-DIFFERENCE OPTION, MIXELM=0) 
 =  3.825    (WHEN MIN. R.F.=1)  AT K=   2, I=   1, J=  77


 TOTAL NUMBER OF POINT SOURCES/SINKS PRESENT IN THE FLOW MODEL =    62

 MAXIMUM STEPSIZE WHICH MEETS STABILITY CRITERION OF THE SINK & SOURCE TERM
 =  242.8    (WHEN MIN. R.F.=1)  AT K=   2, I=   1, J=   1

 MAXIMUM STEPSIZE WHICH MEETS STABILITY CRITERION OF THE DISPERSION TERM
 =  20.29    (WHEN MIN. R.F.=1)  AT K=   1, I=   1, J=  31
     1 CALLS TO GCG PACKAGE FOR TRANSPORT TIME STEP   4 IN FLOW TIME STEP 514 STRESS PERIOD   1
     5 TOTAL ITERATIONS
  MAXIMUM CONCENTRATION CHANGES FOR EACH ITERATION:
  MAX. CHANGE LAYER,ROW,COL MAX. CHANGE LAYER,ROW,COL MAX. CHANGE LAYER,ROW,COL MAX. CHANGE LAYER,ROW,COL MAX. CHANGE LAYER,ROW,COL
 ------------------------------------------------------------------------------------------------------------------------------------
   0.1638E-01 (  2,  1, 41)  0.4079E-03 (  2,  1, 75)  0.1258E-04 (  3,  1, 43)  0.4860E-06 (  3,  1, 45)  0.1249E-07 (  4,  1, 78)


                                          ================================================
                                                         FROM TIME =   5140.0     TO    5150.0    

 
 SOLVING FOR HEAD 
 FLOW MODEL IS TRANSIENT
 FLOW MODEL CONTAINS CONSTANT-HEAD CELLS


 MAXIMUM STEPSIZE DURING WHICH ANY PARTICLE CANNOT MOVE MORE THAN ONE CELL
 =  5.965    (WHEN MIN. R.F.=1)  AT K=   4, I=   1, J=  48

 MAXIMUM STEPSIZE WHICH MEETS STABILITY CRITERION OF THE ADVECTION TERM
 (FOR PURE FINITE-DIFFERENCE OPTION, MIXELM=0) 
 =  3.831    (WHEN MIN. R.F.=1)  AT K=   2, I=   1, J=  77


 TOTAL NUMBER OF POINT SOURCES/SINKS PRESENT IN THE FLOW MODEL =    62

 MAXIMUM STEPSIZE WHICH MEETS STABILITY CRITERION OF THE SINK & SOURCE TERM
 =  254.5    (WHEN MIN. R.F.=1)  AT K=   2, I=   1, J=   1

 MAXIMUM STEPSIZE WHICH MEETS STABILITY CRITERION OF THE DISPERSION TERM
 =  20.29    (WHEN MIN. R.F.=1)  AT K=   1, I=   1, J=  31


     1 CALLS TO GCG PACKAGE FOR TRANSPORT TIME STEP   1 IN FLOW TIME STEP 515 STRESS PERIOD   1
     6 TOTAL ITERATIONS

 NO OUTPUT CONTROL FOR STRESS PERIOD    1   TIME STEP 515
 
 SOLVING FOR HEAD 
 FLOW MODEL IS TRANSIENT
 FLOW MODEL CONTAINS CONSTANT-HEAD CELLS


 MAXIMUM STEPSIZE DURING WHICH ANY PARTICLE CANNOT MOVE MORE THAN ONE CELL
 =  5.976    (WHEN MIN. R.F.=1)  AT K=   4, I=   1, J=  48

 MAXIMUM STEPSIZE WHICH MEETS STABILITY CRITERION OF THE ADVECTION TERM
 (FOR PURE FINITE-DIFFERENCE OPTION, MIXELM=0) 
 =  3.905    (WHEN MIN. R.F.=1)  AT K=   2, I=   1, J=  77


 TOTAL NUMBER OF POINT SOURCES/SINKS PRESENT IN THE FLOW MODEL =    62

 MAXIMUM STEPSIZE WHICH MEETS STABILITY CRITERION OF THE SINK & SOURCE TERM
 =  247.8    (WHEN MIN. R.F.=1)  AT K=   2, I=   1, J=   1

 MAXIMUM STEPSIZE WHICH MEETS STABILITY CRITERION OF THE DISPERSION TERM
 =  20.29    (WHEN MIN. R.F.=1)  AT K=   1, I=   1, J=  31
     1 CALLS TO GCG PACKAGE FOR TRANSPORT TIME STEP   2 IN FLOW TIME STEP 515 STRESS PERIOD   1
     6 TOTAL ITERATIONS
 
 SOLVING FOR HEAD 
 FLOW MODEL IS TRANSIENT
 FLOW MODEL CONTAINS CONSTANT-HEAD CELLS


 MAXIMUM STEPSIZE DURING WHICH ANY PARTICLE CANNOT MOVE MORE THAN ONE CELL
 =  6.004    (WHEN MIN. R.F.=1)  AT K=   4, I=   1, J=  48

 MAXIMUM STEPSIZE WHICH MEETS STABILITY CRITERION OF THE ADVECTION TERM
 (FOR PURE FINITE-DIFFERENCE OPTION, MIXELM=0) 
 =  3.780    (WHEN MIN. R.F.=1)  AT K=   2, I=   1, J=  43


 TOTAL NUMBER OF POINT SOURCES/SINKS PRESENT IN THE FLOW MODEL =    62

 MAXIMUM STEPSIZE WHICH MEETS STABILITY CRITERION OF THE SINK & SOURCE TERM
 =  253.3    (WHEN MIN. R.F.=1)  AT K=   2, I=   1, J=   1

 MAXIMUM STEPSIZE WHICH MEETS STABILITY CRITERION OF THE DISPERSION TERM
 =  20.29    (WHEN MIN. R.F.=1)  AT K=   1, I=   1, J=  31
     1 CALLS TO GCG PACKAGE FOR TRANSPORT TIME STEP   3 IN FLOW TIME STEP 515 STRESS PERIOD   1
     6 TOTAL ITERATIONS
 
 SOLVING FOR HEAD 
 FLOW MODEL IS TRANSIENT
 FLOW MODEL CONTAINS CONSTANT-HEAD CELLS


 MAXIMUM STEPSIZE DURING WHICH ANY PARTICLE CANNOT MOVE MORE THAN ONE CELL
 =  6.056    (WHEN MIN. R.F.=1)  AT K=   4, I=   1, J=  48

 MAXIMUM STEPSIZE WHICH MEETS STABILITY CRITERION OF THE ADVECTION TERM
 (FOR PURE FINITE-DIFFERENCE OPTION, MIXELM=0) 
 =  3.786    (WHEN MIN. R.F.=1)  AT K=   2, I=   1, J=  43


 TOTAL NUMBER OF POINT SOURCES/SINKS PRESENT IN THE FLOW MODEL =    62

 MAXIMUM STEPSIZE WHICH MEETS STABILITY CRITERION OF THE SINK & SOURCE TERM
 =  262.7    (WHEN MIN. R.F.=1)  AT K=   2, I=   1, J=   1

 MAXIMUM STEPSIZE WHICH MEETS STABILITY CRITERION OF THE DISPERSION TERM
 =  20.29    (WHEN MIN. R.F.=1)  AT K=   1, I=   1, J=  31
     1 CALLS TO GCG PACKAGE FOR TRANSPORT TIME STEP   4 IN FLOW TIME STEP 515 STRESS PERIOD   1
     5 TOTAL ITERATIONS
  MAXIMUM CONCENTRATION CHANGES FOR EACH ITERATION:
  MAX. CHANGE LAYER,ROW,COL MAX. CHANGE LAYER,ROW,COL MAX. CHANGE LAYER,ROW,COL MAX. CHANGE LAYER,ROW,COL MAX. CHANGE LAYER,ROW,COL
 ------------------------------------------------------------------------------------------------------------------------------------
   0.1472E-01 (  2,  1, 78)  0.3573E-03 (  2,  1, 76)  0.7785E-05 (  3,  1, 44)  0.2603E-06 (  3,  1, 75)  0.7889E-08 (  4,  1, 75)


                                          ================================================
                                                         FROM TIME =   5150.0     TO    5160.0    

 
 SOLVING FOR HEAD 
 FLOW MODEL IS TRANSIENT
 FLOW MODEL CONTAINS CONSTANT-HEAD CELLS


 MAXIMUM STEPSIZE DURING WHICH ANY PARTICLE CANNOT MOVE MORE THAN ONE CELL
 =  6.093    (WHEN MIN. R.F.=1)  AT K=   4, I=   1, J=  48

 MAXIMUM STEPSIZE WHICH MEETS STABILITY CRITERION OF THE ADVECTION TERM
 (FOR PURE FINITE-DIFFERENCE OPTION, MIXELM=0) 
 =  3.824    (WHEN MIN. R.F.=1)  AT K=   2, I=   1, J=  43


 TOTAL NUMBER OF POINT SOURCES/SINKS PRESENT IN THE FLOW MODEL =    62

 MAXIMUM STEPSIZE WHICH MEETS STABILITY CRITERION OF THE SINK & SOURCE TERM
 =  275.5    (WHEN MIN. R.F.=1)  AT K=   2, I=   1, J=   1

 MAXIMUM STEPSIZE WHICH MEETS STABILITY CRITERION OF THE DISPERSION TERM
 =  20.29    (WHEN MIN. R.F.=1)  AT K=   1, I=   1, J=  31


     1 CALLS TO GCG PACKAGE FOR TRANSPORT TIME STEP   1 IN FLOW TIME STEP 516 STRESS PERIOD   1
     6 TOTAL ITERATIONS

 NO OUTPUT CONTROL FOR STRESS PERIOD    1   TIME STEP 516
 
 SOLVING FOR HEAD 
 FLOW MODEL IS TRANSIENT
 FLOW MODEL CONTAINS CONSTANT-HEAD CELLS


 MAXIMUM STEPSIZE DURING WHICH ANY PARTICLE CANNOT MOVE MORE THAN ONE CELL
 =  6.150    (WHEN MIN. R.F.=1)  AT K=   5, I=   1, J=  48

 MAXIMUM STEPSIZE WHICH MEETS STABILITY CRITERION OF THE ADVECTION TERM
 (FOR PURE FINITE-DIFFERENCE OPTION, MIXELM=0) 
 =  4.012    (WHEN MIN. R.F.=1)  AT K=   2, I=   1, J=  43


 TOTAL NUMBER OF POINT SOURCES/SINKS PRESENT IN THE FLOW MODEL =    62

 MAXIMUM STEPSIZE WHICH MEETS STABILITY CRITERION OF THE SINK & SOURCE TERM
 =  271.9    (WHEN MIN. R.F.=1)  AT K=   2, I=   1, J=   1

 MAXIMUM STEPSIZE WHICH MEETS STABILITY CRITERION OF THE DISPERSION TERM
 =  20.29    (WHEN MIN. R.F.=1)  AT K=   1, I=   1, J=  31
     1 CALLS TO GCG PACKAGE FOR TRANSPORT TIME STEP   2 IN FLOW TIME STEP 516 STRESS PERIOD   1
     6 TOTAL ITERATIONS
 
 SOLVING FOR HEAD 
 FLOW MODEL IS TRANSIENT
 FLOW MODEL CONTAINS CONSTANT-HEAD CELLS


 MAXIMUM STEPSIZE DURING WHICH ANY PARTICLE CANNOT MOVE MORE THAN ONE CELL
 =  6.225    (WHEN MIN. R.F.=1)  AT K=   5, I=   1, J=  48

 MAXIMUM STEPSIZE WHICH MEETS STABILITY CRITERION OF THE ADVECTION TERM
 (FOR PURE FINITE-DIFFERENCE OPTION, MIXELM=0) 
 =  4.266    (WHEN MIN. R.F.=1)  AT K=   2, I=   1, J=  76


 TOTAL NUMBER OF POINT SOURCES/SINKS PRESENT IN THE FLOW MODEL =    62

 MAXIMUM STEPSIZE WHICH MEETS STABILITY CRITERION OF THE SINK & SOURCE TERM
 =  280.4    (WHEN MIN. R.F.=1)  AT K=   2, I=   1, J=   1

 MAXIMUM STEPSIZE WHICH MEETS STABILITY CRITERION OF THE DISPERSION TERM
 =  20.29    (WHEN MIN. R.F.=1)  AT K=   1, I=   1, J=  31
     1 CALLS TO GCG PACKAGE FOR TRANSPORT TIME STEP   3 IN FLOW TIME STEP 516 STRESS PERIOD   1
     6 TOTAL ITERATIONS
 
 SOLVING FOR HEAD 
 FLOW MODEL IS TRANSIENT
 FLOW MODEL CONTAINS CONSTANT-HEAD CELLS


 MAXIMUM STEPSIZE DURING WHICH ANY PARTICLE CANNOT MOVE MORE THAN ONE CELL
 =  6.327    (WHEN MIN. R.F.=1)  AT K=   4, I=   1, J=  60

 MAXIMUM STEPSIZE WHICH MEETS STABILITY CRITERION OF THE ADVECTION TERM
 (FOR PURE FINITE-DIFFERENCE OPTION, MIXELM=0) 
 =  4.008    (WHEN MIN. R.F.=1)  AT K=   2, I=   1, J=  44


 TOTAL NUMBER OF POINT SOURCES/SINKS PRESENT IN THE FLOW MODEL =    62

 MAXIMUM STEPSIZE WHICH MEETS STABILITY CRITERION OF THE SINK & SOURCE TERM
 =  289.3    (WHEN MIN. R.F.=1)  AT K=   2, I=   1, J=   1

 MAXIMUM STEPSIZE WHICH MEETS STABILITY CRITERION OF THE DISPERSION TERM
 =  20.29    (WHEN MIN. R.F.=1)  AT K=   1, I=   1, J=  31
     1 CALLS TO GCG PACKAGE FOR TRANSPORT TIME STEP   4 IN FLOW TIME STEP 516 STRESS PERIOD   1
     5 TOTAL ITERATIONS
  MAXIMUM CONCENTRATION CHANGES FOR EACH ITERATION:
  MAX. CHANGE LAYER,ROW,COL MAX. CHANGE LAYER,ROW,COL MAX. CHANGE LAYER,ROW,COL MAX. CHANGE LAYER,ROW,COL MAX. CHANGE LAYER,ROW,COL
 ------------------------------------------------------------------------------------------------------------------------------------
   0.1508E-01 (  2,  1, 77)  0.2984E-03 (  2,  1, 77)  0.9152E-05 (  2,  1, 78)  0.2844E-06 (  3,  1, 78)  0.5788E-08 (  3,  1, 33)


                                          ================================================
                                                         FROM TIME =   5160.0     TO    5170.0    

 
 SOLVING FOR HEAD 
 FLOW MODEL IS TRANSIENT
 FLOW MODEL CONTAINS CONSTANT-HEAD CELLS


 MAXIMUM STEPSIZE DURING WHICH ANY PARTICLE CANNOT MOVE MORE THAN ONE CELL
 =  6.332    (WHEN MIN. R.F.=1)  AT K=   4, I=   1, J=  60

 MAXIMUM STEPSIZE WHICH MEETS STABILITY CRITERION OF THE ADVECTION TERM
 (FOR PURE FINITE-DIFFERENCE OPTION, MIXELM=0) 
 =  3.958    (WHEN MIN. R.F.=1)  AT K=   2, I=   1, J=  44


 TOTAL NUMBER OF POINT SOURCES/SINKS PRESENT IN THE FLOW MODEL =    62

 MAXIMUM STEPSIZE WHICH MEETS STABILITY CRITERION OF THE SINK & SOURCE TERM
 =  303.6    (WHEN MIN. R.F.=1)  AT K=   2, I=   1, J=   1

 MAXIMUM STEPSIZE WHICH MEETS STABILITY CRITERION OF THE DISPERSION TERM
 =  20.29    (WHEN MIN. R.F.=1)  AT K=   1, I=   1, J=  31


     1 CALLS TO GCG PACKAGE FOR TRANSPORT TIME STEP   1 IN FLOW TIME STEP 517 STRESS PERIOD   1
     6 TOTAL ITERATIONS

 NO OUTPUT CONTROL FOR STRESS PERIOD    1   TIME STEP 517
 
 SOLVING FOR HEAD 
 FLOW MODEL IS TRANSIENT
 FLOW MODEL CONTAINS CONSTANT-HEAD CELLS


 MAXIMUM STEPSIZE DURING WHICH ANY PARTICLE CANNOT MOVE MORE THAN ONE CELL
 =  6.338    (WHEN MIN. R.F.=1)  AT K=   4, I=   1, J=  60

 MAXIMUM STEPSIZE WHICH MEETS STABILITY CRITERION OF THE ADVECTION TERM
 (FOR PURE FINITE-DIFFERENCE OPTION, MIXELM=0) 
 =  3.927    (WHEN MIN. R.F.=1)  AT K=   2, I=   1, J=  44


 TOTAL NUMBER OF POINT SOURCES/SINKS PRESENT IN THE FLOW MODEL =    62

 MAXIMUM STEPSIZE WHICH MEETS STABILITY CRITERION OF THE SINK & SOURCE TERM
 =  293.5    (WHEN MIN. R.F.=1)  AT K=   2, I=   1, J=   1

 MAXIMUM STEPSIZE WHICH MEETS STABILITY CRITERION OF THE DISPERSION TERM
 =  20.29    (WHEN MIN. R.F.=1)  AT K=   1, I=   1, J=  31
     1 CALLS TO GCG PACKAGE FOR TRANSPORT TIME STEP   2 IN FLOW TIME STEP 517 STRESS PERIOD   1
     6 TOTAL ITERATIONS
 
 SOLVING FOR HEAD 
 FLOW MODEL IS TRANSIENT
 FLOW MODEL CONTAINS CONSTANT-HEAD CELLS


 MAXIMUM STEPSIZE DURING WHICH ANY PARTICLE CANNOT MOVE MORE THAN ONE CELL
 =  6.345    (WHEN MIN. R.F.=1)  AT K=   4, I=   1, J=  60

 MAXIMUM STEPSIZE WHICH MEETS STABILITY CRITERION OF THE ADVECTION TERM
 (FOR PURE FINITE-DIFFERENCE OPTION, MIXELM=0) 
 =  4.021    (WHEN MIN. R.F.=1)  AT K=   2, I=   1, J=  44


 TOTAL NUMBER OF POINT SOURCES/SINKS PRESENT IN THE FLOW MODEL =    62

 MAXIMUM STEPSIZE WHICH MEETS STABILITY CRITERION OF THE SINK & SOURCE TERM
 =  300.5    (WHEN MIN. R.F.=1)  AT K=   2, I=   1, J=   1

 MAXIMUM STEPSIZE WHICH MEETS STABILITY CRITERION OF THE DISPERSION TERM
 =  20.29    (WHEN MIN. R.F.=1)  AT K=   1, I=   1, J=  31
     1 CALLS TO GCG PACKAGE FOR TRANSPORT TIME STEP   3 IN FLOW TIME STEP 517 STRESS PERIOD   1
     6 TOTAL ITERATIONS
 
 SOLVING FOR HEAD 
 FLOW MODEL IS TRANSIENT
 FLOW MODEL CONTAINS CONSTANT-HEAD CELLS


 MAXIMUM STEPSIZE DURING WHICH ANY PARTICLE CANNOT MOVE MORE THAN ONE CELL
 =  6.352    (WHEN MIN. R.F.=1)  AT K=   4, I=   1, J=  60

 MAXIMUM STEPSIZE WHICH MEETS STABILITY CRITERION OF THE ADVECTION TERM
 (FOR PURE FINITE-DIFFERENCE OPTION, MIXELM=0) 
 =  4.257    (WHEN MIN. R.F.=1)  AT K=   2, I=   1, J=  44


 TOTAL NUMBER OF POINT SOURCES/SINKS PRESENT IN THE FLOW MODEL =    62

 MAXIMUM STEPSIZE WHICH MEETS STABILITY CRITERION OF THE SINK & SOURCE TERM
 =  311.2    (WHEN MIN. R.F.=1)  AT K=   2, I=   1, J=   1

 MAXIMUM STEPSIZE WHICH MEETS STABILITY CRITERION OF THE DISPERSION TERM
 =  20.29    (WHEN MIN. R.F.=1)  AT K=   1, I=   1, J=  31
     1 CALLS TO GCG PACKAGE FOR TRANSPORT TIME STEP   4 IN FLOW TIME STEP 517 STRESS PERIOD   1
     5 TOTAL ITERATIONS
  MAXIMUM CONCENTRATION CHANGES FOR EACH ITERATION:
  MAX. CHANGE LAYER,ROW,COL MAX. CHANGE LAYER,ROW,COL MAX. CHANGE LAYER,ROW,COL MAX. CHANGE LAYER,ROW,COL MAX. CHANGE LAYER,ROW,COL
 ------------------------------------------------------------------------------------------------------------------------------------
   0.1193E-01 (  2,  1, 43)  0.2242E-03 (  2,  1, 83)  0.4538E-05 (  2,  1, 84)  0.1171E-06 (  3,  1, 42)  0.2523E-08 (  4,  1, 46)


                                          ================================================
                                                         FROM TIME =   5170.0     TO    5180.0    

 
 SOLVING FOR HEAD 
 FLOW MODEL IS TRANSIENT
 FLOW MODEL CONTAINS CONSTANT-HEAD CELLS


 MAXIMUM STEPSIZE DURING WHICH ANY PARTICLE CANNOT MOVE MORE THAN ONE CELL
 =  6.358    (WHEN MIN. R.F.=1)  AT K=   4, I=   1, J=  60

 MAXIMUM STEPSIZE WHICH MEETS STABILITY CRITERION OF THE ADVECTION TERM
 (FOR PURE FINITE-DIFFERENCE OPTION, MIXELM=0) 
 =  4.387    (WHEN MIN. R.F.=1)  AT K=   2, I=   1, J=  44


 TOTAL NUMBER OF POINT SOURCES/SINKS PRESENT IN THE FLOW MODEL =    62

 MAXIMUM STEPSIZE WHICH MEETS STABILITY CRITERION OF THE SINK & SOURCE TERM
 =  319.6    (WHEN MIN. R.F.=1)  AT K=   2, I=   1, J=   1

 MAXIMUM STEPSIZE WHICH MEETS STABILITY CRITERION OF THE DISPERSION TERM
 =  20.29    (WHEN MIN. R.F.=1)  AT K=   1, I=   1, J=  31


     1 CALLS TO GCG PACKAGE FOR TRANSPORT TIME STEP   1 IN FLOW TIME STEP 518 STRESS PERIOD   1
     6 TOTAL ITERATIONS

 NO OUTPUT CONTROL FOR STRESS PERIOD    1   TIME STEP 518
 
 SOLVING FOR HEAD 
 FLOW MODEL IS TRANSIENT
 FLOW MODEL CONTAINS CONSTANT-HEAD CELLS


 MAXIMUM STEPSIZE DURING WHICH ANY PARTICLE CANNOT MOVE MORE THAN ONE CELL
 =  6.025    (WHEN MIN. R.F.=1)  AT K=   4, I=   1, J=  74

 MAXIMUM STEPSIZE WHICH MEETS STABILITY CRITERION OF THE ADVECTION TERM
 (FOR PURE FINITE-DIFFERENCE OPTION, MIXELM=0) 
 =  4.379    (WHEN MIN. R.F.=1)  AT K=   2, I=   1, J=  75


 TOTAL NUMBER OF POINT SOURCES/SINKS PRESENT IN THE FLOW MODEL =    62

 MAXIMUM STEPSIZE WHICH MEETS STABILITY CRITERION OF THE SINK & SOURCE TERM
 =  306.5    (WHEN MIN. R.F.=1)  AT K=   2, I=   1, J=   1

 MAXIMUM STEPSIZE WHICH MEETS STABILITY CRITERION OF THE DISPERSION TERM
 =  20.29    (WHEN MIN. R.F.=1)  AT K=   1, I=   1, J=  31
     1 CALLS TO GCG PACKAGE FOR TRANSPORT TIME STEP   2 IN FLOW TIME STEP 518 STRESS PERIOD   1
     6 TOTAL ITERATIONS
 
 SOLVING FOR HEAD 
 FLOW MODEL IS TRANSIENT
 FLOW MODEL CONTAINS CONSTANT-HEAD CELLS


 MAXIMUM STEPSIZE DURING WHICH ANY PARTICLE CANNOT MOVE MORE THAN ONE CELL
 =  5.630    (WHEN MIN. R.F.=1)  AT K=   4, I=   1, J=  74

 MAXIMUM STEPSIZE WHICH MEETS STABILITY CRITERION OF THE ADVECTION TERM
 (FOR PURE FINITE-DIFFERENCE OPTION, MIXELM=0) 
 =  4.210    (WHEN MIN. R.F.=1)  AT K=   2, I=   1, J=  81


 TOTAL NUMBER OF POINT SOURCES/SINKS PRESENT IN THE FLOW MODEL =    62

 MAXIMUM STEPSIZE WHICH MEETS STABILITY CRITERION OF THE SINK & SOURCE TERM
 =  318.7    (WHEN MIN. R.F.=1)  AT K=   2, I=   1, J=   1

 MAXIMUM STEPSIZE WHICH MEETS STABILITY CRITERION OF THE DISPERSION TERM
 =  20.29    (WHEN MIN. R.F.=1)  AT K=   1, I=   1, J=  31
     1 CALLS TO GCG PACKAGE FOR TRANSPORT TIME STEP   3 IN FLOW TIME STEP 518 STRESS PERIOD   1
     6 TOTAL ITERATIONS
 
 SOLVING FOR HEAD 
 FLOW MODEL IS TRANSIENT
 FLOW MODEL CONTAINS CONSTANT-HEAD CELLS


 MAXIMUM STEPSIZE DURING WHICH ANY PARTICLE CANNOT MOVE MORE THAN ONE CELL
 =  5.335    (WHEN MIN. R.F.=1)  AT K=   4, I=   1, J=  74

 MAXIMUM STEPSIZE WHICH MEETS STABILITY CRITERION OF THE ADVECTION TERM
 (FOR PURE FINITE-DIFFERENCE OPTION, MIXELM=0) 
 =  3.936    (WHEN MIN. R.F.=1)  AT K=   2, I=   1, J=  81


 TOTAL NUMBER OF POINT SOURCES/SINKS PRESENT IN THE FLOW MODEL =    62

 MAXIMUM STEPSIZE WHICH MEETS STABILITY CRITERION OF THE SINK & SOURCE TERM
 =  342.4    (WHEN MIN. R.F.=1)  AT K=   2, I=   1, J=   1

 MAXIMUM STEPSIZE WHICH MEETS STABILITY CRITERION OF THE DISPERSION TERM
 =  20.29    (WHEN MIN. R.F.=1)  AT K=   1, I=   1, J=  31
     1 CALLS TO GCG PACKAGE FOR TRANSPORT TIME STEP   4 IN FLOW TIME STEP 518 STRESS PERIOD   1
     3 TOTAL ITERATIONS
  MAXIMUM CONCENTRATION CHANGES FOR EACH ITERATION:
  MAX. CHANGE LAYER,ROW,COL MAX. CHANGE LAYER,ROW,COL MAX. CHANGE LAYER,ROW,COL MAX. CHANGE LAYER,ROW,COL MAX. CHANGE LAYER,ROW,COL
 ------------------------------------------------------------------------------------------------------------------------------------
   0.2621E-02 (  2,  1, 76)  0.1022E-04 (  2,  1, 82)  0.4798E-07 (  2,  1, 77)


                                          ================================================
                                                         FROM TIME =   5180.0     TO    5190.0    

 
 SOLVING FOR HEAD 
 FLOW MODEL IS TRANSIENT
 FLOW MODEL CONTAINS CONSTANT-HEAD CELLS


 MAXIMUM STEPSIZE DURING WHICH ANY PARTICLE CANNOT MOVE MORE THAN ONE CELL
 =  5.317    (WHEN MIN. R.F.=1)  AT K=   4, I=   1, J=  74

 MAXIMUM STEPSIZE WHICH MEETS STABILITY CRITERION OF THE ADVECTION TERM
 (FOR PURE FINITE-DIFFERENCE OPTION, MIXELM=0) 
 =  3.927    (WHEN MIN. R.F.=1)  AT K=   2, I=   1, J=  81


 TOTAL NUMBER OF POINT SOURCES/SINKS PRESENT IN THE FLOW MODEL =    62

 MAXIMUM STEPSIZE WHICH MEETS STABILITY CRITERION OF THE SINK & SOURCE TERM
 =  362.9    (WHEN MIN. R.F.=1)  AT K=   2, I=   1, J=   1

 MAXIMUM STEPSIZE WHICH MEETS STABILITY CRITERION OF THE DISPERSION TERM
 =  20.29    (WHEN MIN. R.F.=1)  AT K=   1, I=   1, J=  31


     1 CALLS TO GCG PACKAGE FOR TRANSPORT TIME STEP   1 IN FLOW TIME STEP 519 STRESS PERIOD   1
     6 TOTAL ITERATIONS

 NO OUTPUT CONTROL FOR STRESS PERIOD    1   TIME STEP 519
 
 SOLVING FOR HEAD 
 FLOW MODEL IS TRANSIENT
 FLOW MODEL CONTAINS CONSTANT-HEAD CELLS


 MAXIMUM STEPSIZE DURING WHICH ANY PARTICLE CANNOT MOVE MORE THAN ONE CELL
 =  5.136    (WHEN MIN. R.F.=1)  AT K=   4, I=   1, J=  74

 MAXIMUM STEPSIZE WHICH MEETS STABILITY CRITERION OF THE ADVECTION TERM
 (FOR PURE FINITE-DIFFERENCE OPTION, MIXELM=0) 
 =  3.905    (WHEN MIN. R.F.=1)  AT K=   2, I=   1, J=  81


 TOTAL NUMBER OF POINT SOURCES/SINKS PRESENT IN THE FLOW MODEL =    62

 MAXIMUM STEPSIZE WHICH MEETS STABILITY CRITERION OF THE SINK & SOURCE TERM
 =  358.1    (WHEN MIN. R.F.=1)  AT K=   2, I=   1, J=   1

 MAXIMUM STEPSIZE WHICH MEETS STABILITY CRITERION OF THE DISPERSION TERM
 =  20.29    (WHEN MIN. R.F.=1)  AT K=   1, I=   1, J=  31
     1 CALLS TO GCG PACKAGE FOR TRANSPORT TIME STEP   2 IN FLOW TIME STEP 519 STRESS PERIOD   1
     6 TOTAL ITERATIONS
 
 SOLVING FOR HEAD 
 FLOW MODEL IS TRANSIENT
 FLOW MODEL CONTAINS CONSTANT-HEAD CELLS


 MAXIMUM STEPSIZE DURING WHICH ANY PARTICLE CANNOT MOVE MORE THAN ONE CELL
 =  5.021    (WHEN MIN. R.F.=1)  AT K=   4, I=   1, J=  74

 MAXIMUM STEPSIZE WHICH MEETS STABILITY CRITERION OF THE ADVECTION TERM
 (FOR PURE FINITE-DIFFERENCE OPTION, MIXELM=0) 
 =  4.144    (WHEN MIN. R.F.=1)  AT K=   2, I=   1, J=  81


 TOTAL NUMBER OF POINT SOURCES/SINKS PRESENT IN THE FLOW MODEL =    62

 MAXIMUM STEPSIZE WHICH MEETS STABILITY CRITERION OF THE SINK & SOURCE TERM
 =  344.5    (WHEN MIN. R.F.=1)  AT K=   2, I=   1, J=   1

 MAXIMUM STEPSIZE WHICH MEETS STABILITY CRITERION OF THE DISPERSION TERM
 =  20.29    (WHEN MIN. R.F.=1)  AT K=   1, I=   1, J=  31
     1 CALLS TO GCG PACKAGE FOR TRANSPORT TIME STEP   3 IN FLOW TIME STEP 519 STRESS PERIOD   1
     6 TOTAL ITERATIONS
 
 SOLVING FOR HEAD 
 FLOW MODEL IS TRANSIENT
 FLOW MODEL CONTAINS CONSTANT-HEAD CELLS


 MAXIMUM STEPSIZE DURING WHICH ANY PARTICLE CANNOT MOVE MORE THAN ONE CELL
 =  4.972    (WHEN MIN. R.F.=1)  AT K=   4, I=   1, J=  74

 MAXIMUM STEPSIZE WHICH MEETS STABILITY CRITERION OF THE ADVECTION TERM
 (FOR PURE FINITE-DIFFERENCE OPTION, MIXELM=0) 
 =  3.830    (WHEN MIN. R.F.=1)  AT K=   2, I=   1, J=  80


 TOTAL NUMBER OF POINT SOURCES/SINKS PRESENT IN THE FLOW MODEL =    62

 MAXIMUM STEPSIZE WHICH MEETS STABILITY CRITERION OF THE SINK & SOURCE TERM
 =  340.9    (WHEN MIN. R.F.=1)  AT K=   2, I=   1, J=   1

 MAXIMUM STEPSIZE WHICH MEETS STABILITY CRITERION OF THE DISPERSION TERM
 =  20.29    (WHEN MIN. R.F.=1)  AT K=   1, I=   1, J=  31
     1 CALLS TO GCG PACKAGE FOR TRANSPORT TIME STEP   4 IN FLOW TIME STEP 519 STRESS PERIOD   1
     5 TOTAL ITERATIONS
  MAXIMUM CONCENTRATION CHANGES FOR EACH ITERATION:
  MAX. CHANGE LAYER,ROW,COL MAX. CHANGE LAYER,ROW,COL MAX. CHANGE LAYER,ROW,COL MAX. CHANGE LAYER,ROW,COL MAX. CHANGE LAYER,ROW,COL
 ------------------------------------------------------------------------------------------------------------------------------------
   0.1307E-01 (  2,  1, 82)  0.2049E-03 (  3,  1, 77)  0.5269E-05 (  3,  1, 80)  0.1363E-06 (  3,  1, 43)  0.3069E-08 (  2,  1, 80)


                                          ================================================
                                                         FROM TIME =   5190.0     TO    5200.0    

 
 SOLVING FOR HEAD 
 FLOW MODEL IS TRANSIENT
 FLOW MODEL CONTAINS CONSTANT-HEAD CELLS


 MAXIMUM STEPSIZE DURING WHICH ANY PARTICLE CANNOT MOVE MORE THAN ONE CELL
 =  4.969    (WHEN MIN. R.F.=1)  AT K=   4, I=   1, J=  74

 MAXIMUM STEPSIZE WHICH MEETS STABILITY CRITERION OF THE ADVECTION TERM
 (FOR PURE FINITE-DIFFERENCE OPTION, MIXELM=0) 
 =  3.745    (WHEN MIN. R.F.=1)  AT K=   2, I=   1, J=  80


 TOTAL NUMBER OF POINT SOURCES/SINKS PRESENT IN THE FLOW MODEL =    62

 MAXIMUM STEPSIZE WHICH MEETS STABILITY CRITERION OF THE SINK & SOURCE TERM
 =  348.1    (WHEN MIN. R.F.=1)  AT K=   2, I=   1, J=   1

 MAXIMUM STEPSIZE WHICH MEETS STABILITY CRITERION OF THE DISPERSION TERM
 =  20.29    (WHEN MIN. R.F.=1)  AT K=   1, I=   1, J=  31


     1 CALLS TO GCG PACKAGE FOR TRANSPORT TIME STEP   1 IN FLOW TIME STEP 520 STRESS PERIOD   1
     6 TOTAL ITERATIONS

 NO OUTPUT CONTROL FOR STRESS PERIOD    1   TIME STEP 520
 
 SOLVING FOR HEAD 
 FLOW MODEL IS TRANSIENT
 FLOW MODEL CONTAINS CONSTANT-HEAD CELLS


 MAXIMUM STEPSIZE DURING WHICH ANY PARTICLE CANNOT MOVE MORE THAN ONE CELL
 =  4.997    (WHEN MIN. R.F.=1)  AT K=   4, I=   1, J=  74

 MAXIMUM STEPSIZE WHICH MEETS STABILITY CRITERION OF THE ADVECTION TERM
 (FOR PURE FINITE-DIFFERENCE OPTION, MIXELM=0) 
 =  3.634    (WHEN MIN. R.F.=1)  AT K=   2, I=   1, J=  80


 TOTAL NUMBER OF POINT SOURCES/SINKS PRESENT IN THE FLOW MODEL =    62

 MAXIMUM STEPSIZE WHICH MEETS STABILITY CRITERION OF THE SINK & SOURCE TERM
 =  340.0    (WHEN MIN. R.F.=1)  AT K=   2, I=   1, J=   1

 MAXIMUM STEPSIZE WHICH MEETS STABILITY CRITERION OF THE DISPERSION TERM
 =  20.29    (WHEN MIN. R.F.=1)  AT K=   1, I=   1, J=  31
     1 CALLS TO GCG PACKAGE FOR TRANSPORT TIME STEP   2 IN FLOW TIME STEP 520 STRESS PERIOD   1
     6 TOTAL ITERATIONS
 
 SOLVING FOR HEAD 
 FLOW MODEL IS TRANSIENT
 FLOW MODEL CONTAINS CONSTANT-HEAD CELLS


 MAXIMUM STEPSIZE DURING WHICH ANY PARTICLE CANNOT MOVE MORE THAN ONE CELL
 =  5.058    (WHEN MIN. R.F.=1)  AT K=   5, I=   1, J=  74

 MAXIMUM STEPSIZE WHICH MEETS STABILITY CRITERION OF THE ADVECTION TERM
 (FOR PURE FINITE-DIFFERENCE OPTION, MIXELM=0) 
 =  3.665    (WHEN MIN. R.F.=1)  AT K=   2, I=   1, J=  80


 TOTAL NUMBER OF POINT SOURCES/SINKS PRESENT IN THE FLOW MODEL =    62

 MAXIMUM STEPSIZE WHICH MEETS STABILITY CRITERION OF THE SINK & SOURCE TERM
 =  375.1    (WHEN MIN. R.F.=1)  AT K=   2, I=   1, J=   1

 MAXIMUM STEPSIZE WHICH MEETS STABILITY CRITERION OF THE DISPERSION TERM
 =  20.29    (WHEN MIN. R.F.=1)  AT K=   1, I=   1, J=  31
     1 CALLS TO GCG PACKAGE FOR TRANSPORT TIME STEP   3 IN FLOW TIME STEP 520 STRESS PERIOD   1
     6 TOTAL ITERATIONS
 
 SOLVING FOR HEAD 
 FLOW MODEL IS TRANSIENT
 FLOW MODEL CONTAINS CONSTANT-HEAD CELLS


 MAXIMUM STEPSIZE DURING WHICH ANY PARTICLE CANNOT MOVE MORE THAN ONE CELL
 =  5.111    (WHEN MIN. R.F.=1)  AT K=   5, I=   1, J=  74

 MAXIMUM STEPSIZE WHICH MEETS STABILITY CRITERION OF THE ADVECTION TERM
 (FOR PURE FINITE-DIFFERENCE OPTION, MIXELM=0) 
 =  3.950    (WHEN MIN. R.F.=1)  AT K=   2, I=   1, J=  80


 TOTAL NUMBER OF POINT SOURCES/SINKS PRESENT IN THE FLOW MODEL =    62

 MAXIMUM STEPSIZE WHICH MEETS STABILITY CRITERION OF THE SINK & SOURCE TERM
 =  385.9    (WHEN MIN. R.F.=1)  AT K=   2, I=   1, J=   1

 MAXIMUM STEPSIZE WHICH MEETS STABILITY CRITERION OF THE DISPERSION TERM
 =  20.29    (WHEN MIN. R.F.=1)  AT K=   1, I=   1, J=  31
     1 CALLS TO GCG PACKAGE FOR TRANSPORT TIME STEP   4 IN FLOW TIME STEP 520 STRESS PERIOD   1
     5 TOTAL ITERATIONS
  MAXIMUM CONCENTRATION CHANGES FOR EACH ITERATION:
  MAX. CHANGE LAYER,ROW,COL MAX. CHANGE LAYER,ROW,COL MAX. CHANGE LAYER,ROW,COL MAX. CHANGE LAYER,ROW,COL MAX. CHANGE LAYER,ROW,COL
 ------------------------------------------------------------------------------------------------------------------------------------
   0.1999E-01 (  2,  1, 81)  0.4811E-03 (  2,  1, 79)  0.1995E-04 (  3,  1, 79)  0.5857E-06 (  4,  1, 79)  0.1679E-07 (  4,  1, 78)


                                          ================================================
                                                         FROM TIME =   5200.0     TO    5210.0    

 
 SOLVING FOR HEAD 
 FLOW MODEL IS TRANSIENT
 FLOW MODEL CONTAINS CONSTANT-HEAD CELLS


 MAXIMUM STEPSIZE DURING WHICH ANY PARTICLE CANNOT MOVE MORE THAN ONE CELL
 =  5.159    (WHEN MIN. R.F.=1)  AT K=   5, I=   1, J=  74

 MAXIMUM STEPSIZE WHICH MEETS STABILITY CRITERION OF THE ADVECTION TERM
 (FOR PURE FINITE-DIFFERENCE OPTION, MIXELM=0) 
 =  3.846    (WHEN MIN. R.F.=1)  AT K=   2, I=   1, J=  79


 TOTAL NUMBER OF POINT SOURCES/SINKS PRESENT IN THE FLOW MODEL =    62

 MAXIMUM STEPSIZE WHICH MEETS STABILITY CRITERION OF THE SINK & SOURCE TERM
 =  398.7    (WHEN MIN. R.F.=1)  AT K=   2, I=   1, J=   1

 MAXIMUM STEPSIZE WHICH MEETS STABILITY CRITERION OF THE DISPERSION TERM
 =  20.29    (WHEN MIN. R.F.=1)  AT K=   1, I=   1, J=  31


     1 CALLS TO GCG PACKAGE FOR TRANSPORT TIME STEP   1 IN FLOW TIME STEP 521 STRESS PERIOD   1
     6 TOTAL ITERATIONS

 NO OUTPUT CONTROL FOR STRESS PERIOD    1   TIME STEP 521
 
 SOLVING FOR HEAD 
 FLOW MODEL IS TRANSIENT
 FLOW MODEL CONTAINS CONSTANT-HEAD CELLS


 MAXIMUM STEPSIZE DURING WHICH ANY PARTICLE CANNOT MOVE MORE THAN ONE CELL
 =  5.282    (WHEN MIN. R.F.=1)  AT K=   5, I=   1, J=  74

 MAXIMUM STEPSIZE WHICH MEETS STABILITY CRITERION OF THE ADVECTION TERM
 (FOR PURE FINITE-DIFFERENCE OPTION, MIXELM=0) 
 =  3.617    (WHEN MIN. R.F.=1)  AT K=   2, I=   1, J=  79


 TOTAL NUMBER OF POINT SOURCES/SINKS PRESENT IN THE FLOW MODEL =    62

 MAXIMUM STEPSIZE WHICH MEETS STABILITY CRITERION OF THE SINK & SOURCE TERM
 =  376.3    (WHEN MIN. R.F.=1)  AT K=   2, I=   1, J=   1

 MAXIMUM STEPSIZE WHICH MEETS STABILITY CRITERION OF THE DISPERSION TERM
 =  20.29    (WHEN MIN. R.F.=1)  AT K=   1, I=   1, J=  31
     1 CALLS TO GCG PACKAGE FOR TRANSPORT TIME STEP   2 IN FLOW TIME STEP 521 STRESS PERIOD   1
     6 TOTAL ITERATIONS
 
 SOLVING FOR HEAD 
 FLOW MODEL IS TRANSIENT
 FLOW MODEL CONTAINS CONSTANT-HEAD CELLS


 MAXIMUM STEPSIZE DURING WHICH ANY PARTICLE CANNOT MOVE MORE THAN ONE CELL
 =  5.397    (WHEN MIN. R.F.=1)  AT K=   6, I=   1, J=  74

 MAXIMUM STEPSIZE WHICH MEETS STABILITY CRITERION OF THE ADVECTION TERM
 (FOR PURE FINITE-DIFFERENCE OPTION, MIXELM=0) 
 =  3.559    (WHEN MIN. R.F.=1)  AT K=   2, I=   1, J=  79


 TOTAL NUMBER OF POINT SOURCES/SINKS PRESENT IN THE FLOW MODEL =    62

 MAXIMUM STEPSIZE WHICH MEETS STABILITY CRITERION OF THE SINK & SOURCE TERM
 =  389.8    (WHEN MIN. R.F.=1)  AT K=   2, I=   1, J=   1

 MAXIMUM STEPSIZE WHICH MEETS STABILITY CRITERION OF THE DISPERSION TERM
 =  20.29    (WHEN MIN. R.F.=1)  AT K=   1, I=   1, J=  31
     1 CALLS TO GCG PACKAGE FOR TRANSPORT TIME STEP   3 IN FLOW TIME STEP 521 STRESS PERIOD   1
     6 TOTAL ITERATIONS
 
 SOLVING FOR HEAD 
 FLOW MODEL IS TRANSIENT
 FLOW MODEL CONTAINS CONSTANT-HEAD CELLS


 MAXIMUM STEPSIZE DURING WHICH ANY PARTICLE CANNOT MOVE MORE THAN ONE CELL
 =  5.506    (WHEN MIN. R.F.=1)  AT K=   6, I=   1, J=  74

 MAXIMUM STEPSIZE WHICH MEETS STABILITY CRITERION OF THE ADVECTION TERM
 (FOR PURE FINITE-DIFFERENCE OPTION, MIXELM=0) 
 =  3.635    (WHEN MIN. R.F.=1)  AT K=   2, I=   1, J=  79


 TOTAL NUMBER OF POINT SOURCES/SINKS PRESENT IN THE FLOW MODEL =    62

 MAXIMUM STEPSIZE WHICH MEETS STABILITY CRITERION OF THE SINK & SOURCE TERM
 =  418.4    (WHEN MIN. R.F.=1)  AT K=   2, I=   1, J=   1

 MAXIMUM STEPSIZE WHICH MEETS STABILITY CRITERION OF THE DISPERSION TERM
 =  20.29    (WHEN MIN. R.F.=1)  AT K=   1, I=   1, J=  31
     1 CALLS TO GCG PACKAGE FOR TRANSPORT TIME STEP   4 IN FLOW TIME STEP 521 STRESS PERIOD   1
     5 TOTAL ITERATIONS
  MAXIMUM CONCENTRATION CHANGES FOR EACH ITERATION:
  MAX. CHANGE LAYER,ROW,COL MAX. CHANGE LAYER,ROW,COL MAX. CHANGE LAYER,ROW,COL MAX. CHANGE LAYER,ROW,COL MAX. CHANGE LAYER,ROW,COL
 ------------------------------------------------------------------------------------------------------------------------------------
   0.1827E-01 (  2,  1, 80)  0.3586E-03 (  2,  1, 78)  0.1476E-04 (  3,  1, 78)  0.5918E-06 (  3,  1, 76)  0.1417E-07 (  4,  1, 76)


                                          ================================================
                                                         FROM TIME =   5210.0     TO    5220.0    

 
 SOLVING FOR HEAD 
 FLOW MODEL IS TRANSIENT
 FLOW MODEL CONTAINS CONSTANT-HEAD CELLS


 MAXIMUM STEPSIZE DURING WHICH ANY PARTICLE CANNOT MOVE MORE THAN ONE CELL
 =  5.523    (WHEN MIN. R.F.=1)  AT K=   4, I=   1, J=  47

 MAXIMUM STEPSIZE WHICH MEETS STABILITY CRITERION OF THE ADVECTION TERM
 (FOR PURE FINITE-DIFFERENCE OPTION, MIXELM=0) 
 =  3.756    (WHEN MIN. R.F.=1)  AT K=   2, I=   1, J=  79


 TOTAL NUMBER OF POINT SOURCES/SINKS PRESENT IN THE FLOW MODEL =    62

 MAXIMUM STEPSIZE WHICH MEETS STABILITY CRITERION OF THE SINK & SOURCE TERM
 =  452.7    (WHEN MIN. R.F.=1)  AT K=   2, I=   1, J=   1

 MAXIMUM STEPSIZE WHICH MEETS STABILITY CRITERION OF THE DISPERSION TERM
 =  20.29    (WHEN MIN. R.F.=1)  AT K=   1, I=   1, J=  31


     1 CALLS TO GCG PACKAGE FOR TRANSPORT TIME STEP   1 IN FLOW TIME STEP 522 STRESS PERIOD   1
     6 TOTAL ITERATIONS

 NO OUTPUT CONTROL FOR STRESS PERIOD    1   TIME STEP 522
 
 SOLVING FOR HEAD 
 FLOW MODEL IS TRANSIENT
 FLOW MODEL CONTAINS CONSTANT-HEAD CELLS


 MAXIMUM STEPSIZE DURING WHICH ANY PARTICLE CANNOT MOVE MORE THAN ONE CELL
 =  5.426    (WHEN MIN. R.F.=1)  AT K=   4, I=   1, J=  47

 MAXIMUM STEPSIZE WHICH MEETS STABILITY CRITERION OF THE ADVECTION TERM
 (FOR PURE FINITE-DIFFERENCE OPTION, MIXELM=0) 
 =  4.013    (WHEN MIN. R.F.=1)  AT K=   2, I=   1, J=  78


 TOTAL NUMBER OF POINT SOURCES/SINKS PRESENT IN THE FLOW MODEL =    62

 MAXIMUM STEPSIZE WHICH MEETS STABILITY CRITERION OF THE SINK & SOURCE TERM
 =  446.7    (WHEN MIN. R.F.=1)  AT K=   2, I=   1, J=   1

 MAXIMUM STEPSIZE WHICH MEETS STABILITY CRITERION OF THE DISPERSION TERM
 =  20.29    (WHEN MIN. R.F.=1)  AT K=   1, I=   1, J=  31
     1 CALLS TO GCG PACKAGE FOR TRANSPORT TIME STEP   2 IN FLOW TIME STEP 522 STRESS PERIOD   1
     6 TOTAL ITERATIONS
 
 SOLVING FOR HEAD 
 FLOW MODEL IS TRANSIENT
 FLOW MODEL CONTAINS CONSTANT-HEAD CELLS


 MAXIMUM STEPSIZE DURING WHICH ANY PARTICLE CANNOT MOVE MORE THAN ONE CELL
 =  5.423    (WHEN MIN. R.F.=1)  AT K=   4, I=   1, J=  47

 MAXIMUM STEPSIZE WHICH MEETS STABILITY CRITERION OF THE ADVECTION TERM
 (FOR PURE FINITE-DIFFERENCE OPTION, MIXELM=0) 
 =  3.744    (WHEN MIN. R.F.=1)  AT K=   2, I=   1, J=  78


 TOTAL NUMBER OF POINT SOURCES/SINKS PRESENT IN THE FLOW MODEL =    62

 MAXIMUM STEPSIZE WHICH MEETS STABILITY CRITERION OF THE SINK & SOURCE TERM
 =  473.4    (WHEN MIN. R.F.=1)  AT K=   2, I=   1, J=   1

 MAXIMUM STEPSIZE WHICH MEETS STABILITY CRITERION OF THE DISPERSION TERM
 =  20.29    (WHEN MIN. R.F.=1)  AT K=   1, I=   1, J=  31
     1 CALLS TO GCG PACKAGE FOR TRANSPORT TIME STEP   3 IN FLOW TIME STEP 522 STRESS PERIOD   1
     6 TOTAL ITERATIONS
 
 SOLVING FOR HEAD 
 FLOW MODEL IS TRANSIENT
 FLOW MODEL CONTAINS CONSTANT-HEAD CELLS


 MAXIMUM STEPSIZE DURING WHICH ANY PARTICLE CANNOT MOVE MORE THAN ONE CELL
 =  5.524    (WHEN MIN. R.F.=1)  AT K=   4, I=   1, J=  47

 MAXIMUM STEPSIZE WHICH MEETS STABILITY CRITERION OF THE ADVECTION TERM
 (FOR PURE FINITE-DIFFERENCE OPTION, MIXELM=0) 
 =  3.628    (WHEN MIN. R.F.=1)  AT K=   2, I=   1, J=  78


 TOTAL NUMBER OF POINT SOURCES/SINKS PRESENT IN THE FLOW MODEL =    62

 MAXIMUM STEPSIZE WHICH MEETS STABILITY CRITERION OF THE SINK & SOURCE TERM
 =  501.8    (WHEN MIN. R.F.=1)  AT K=   2, I=   1, J=   1

 MAXIMUM STEPSIZE WHICH MEETS STABILITY CRITERION OF THE DISPERSION TERM
 =  20.29    (WHEN MIN. R.F.=1)  AT K=   1, I=   1, J=  31
     1 CALLS TO GCG PACKAGE FOR TRANSPORT TIME STEP   4 IN FLOW TIME STEP 522 STRESS PERIOD   1
     5 TOTAL ITERATIONS
  MAXIMUM CONCENTRATION CHANGES FOR EACH ITERATION:
  MAX. CHANGE LAYER,ROW,COL MAX. CHANGE LAYER,ROW,COL MAX. CHANGE LAYER,ROW,COL MAX. CHANGE LAYER,ROW,COL MAX. CHANGE LAYER,ROW,COL
 ------------------------------------------------------------------------------------------------------------------------------------
   0.1581E-01 (  2,  1, 79)  0.3860E-03 (  2,  1, 79)  0.1104E-04 (  3,  1, 42)  0.3466E-06 (  3,  1, 80)  0.9788E-08 (  3,  1, 88)


                                          ================================================
                                                         FROM TIME =   5220.0     TO    5230.0    

 
 SOLVING FOR HEAD 
 FLOW MODEL IS TRANSIENT
 FLOW MODEL CONTAINS CONSTANT-HEAD CELLS


 MAXIMUM STEPSIZE DURING WHICH ANY PARTICLE CANNOT MOVE MORE THAN ONE CELL
 =  5.544    (WHEN MIN. R.F.=1)  AT K=   5, I=   1, J=  47

 MAXIMUM STEPSIZE WHICH MEETS STABILITY CRITERION OF THE ADVECTION TERM
 (FOR PURE FINITE-DIFFERENCE OPTION, MIXELM=0) 
 =  3.631    (WHEN MIN. R.F.=1)  AT K=   2, I=   1, J=  78


 TOTAL NUMBER OF POINT SOURCES/SINKS PRESENT IN THE FLOW MODEL =    62

 MAXIMUM STEPSIZE WHICH MEETS STABILITY CRITERION OF THE SINK & SOURCE TERM
 =  600.8    (WHEN MIN. R.F.=1)  AT K=   2, I=   1, J=   1

 MAXIMUM STEPSIZE WHICH MEETS STABILITY CRITERION OF THE DISPERSION TERM
 =  20.29    (WHEN MIN. R.F.=1)  AT K=   1, I=   1, J=  31


     1 CALLS TO GCG PACKAGE FOR TRANSPORT TIME STEP   1 IN FLOW TIME STEP 523 STRESS PERIOD   1
     5 TOTAL ITERATIONS

 NO OUTPUT CONTROL FOR STRESS PERIOD    1   TIME STEP 523



 >>>>>>>>>>>>>>>>>>>>>>>>>>>>>>>>>>>>>>>>>>>>>>>>>>>>>>>FOR COMPONENT NO. 01<<<<<<<<<<<<<<<<<<<<<<<<<<<<<<<<<<<<<<<<<<<<<<<<<<<<<<<


                                            -------------------------------------------
                                                      TRANSPORT STEP NO.    1
                                            -------------------------------------------

 TOTAL ELAPSED TIME SINCE BEGINNING OF SIMULATION =   5222.100    D   
 .....................................................................

                     CUMULATIVE MASS BUDGETS AT END OF TRANSPORT STEP    1, TIME STEP  523, STRESS PERIOD    1
                     ------------------------------------------------------------------------------------------

                                                             IN                           OUT
                                                      ----------------             ----------------
                               CONSTANT CONCENTRATION:    3093837.                   -2171687.    
                                        CONSTANT HEAD:    0.000000                   -740.8367    
                               MASS STOR (FLOW MODEL):    358.1179                   -545.4110    
                                MASS STORAGE (SOLUTE):    5363621.                   -6284842.    
                            ---------------------------------------------------------------------------
                                              [TOTAL]:    8457816.     KG            -8457816.     KG  

                                                          NET (IN - OUT):  -0.1455790E-01
                                                   DISCREPANCY (PERCENT):  -0.1721236E-06
 
 SOLVING FOR HEAD 
 FLOW MODEL IS TRANSIENT
 FLOW MODEL CONTAINS CONSTANT-HEAD CELLS


 MAXIMUM STEPSIZE DURING WHICH ANY PARTICLE CANNOT MOVE MORE THAN ONE CELL
 =  5.600    (WHEN MIN. R.F.=1)  AT K=   5, I=   1, J=  47

 MAXIMUM STEPSIZE WHICH MEETS STABILITY CRITERION OF THE ADVECTION TERM
 (FOR PURE FINITE-DIFFERENCE OPTION, MIXELM=0) 
 =  3.687    (WHEN MIN. R.F.=1)  AT K=   2, I=   1, J=  78


 TOTAL NUMBER OF POINT SOURCES/SINKS PRESENT IN THE FLOW MODEL =    62

 MAXIMUM STEPSIZE WHICH MEETS STABILITY CRITERION OF THE SINK & SOURCE TERM
 =  636.3    (WHEN MIN. R.F.=1)  AT K=   2, I=   1, J=   1

 MAXIMUM STEPSIZE WHICH MEETS STABILITY CRITERION OF THE DISPERSION TERM
 =  20.29    (WHEN MIN. R.F.=1)  AT K=   1, I=   1, J=  31
     1 CALLS TO GCG PACKAGE FOR TRANSPORT TIME STEP   2 IN FLOW TIME STEP 523 STRESS PERIOD   1
     6 TOTAL ITERATIONS
 
 SOLVING FOR HEAD 
 FLOW MODEL IS TRANSIENT
 FLOW MODEL CONTAINS CONSTANT-HEAD CELLS


 MAXIMUM STEPSIZE DURING WHICH ANY PARTICLE CANNOT MOVE MORE THAN ONE CELL
 =  5.725    (WHEN MIN. R.F.=1)  AT K=   5, I=   1, J=  47

 MAXIMUM STEPSIZE WHICH MEETS STABILITY CRITERION OF THE ADVECTION TERM
 (FOR PURE FINITE-DIFFERENCE OPTION, MIXELM=0) 
 =  3.874    (WHEN MIN. R.F.=1)  AT K=   2, I=   1, J=  78


 TOTAL NUMBER OF POINT SOURCES/SINKS PRESENT IN THE FLOW MODEL =    62

 MAXIMUM STEPSIZE WHICH MEETS STABILITY CRITERION OF THE SINK & SOURCE TERM
 =  650.1    (WHEN MIN. R.F.=1)  AT K=   2, I=   1, J=   1

 MAXIMUM STEPSIZE WHICH MEETS STABILITY CRITERION OF THE DISPERSION TERM
 =  20.29    (WHEN MIN. R.F.=1)  AT K=   1, I=   1, J=  31
     1 CALLS TO GCG PACKAGE FOR TRANSPORT TIME STEP   3 IN FLOW TIME STEP 523 STRESS PERIOD   1
     6 TOTAL ITERATIONS
 
 SOLVING FOR HEAD 
 FLOW MODEL IS TRANSIENT
 FLOW MODEL CONTAINS CONSTANT-HEAD CELLS


 MAXIMUM STEPSIZE DURING WHICH ANY PARTICLE CANNOT MOVE MORE THAN ONE CELL
 =  5.836    (WHEN MIN. R.F.=1)  AT K=   6, I=   1, J=  47

 MAXIMUM STEPSIZE WHICH MEETS STABILITY CRITERION OF THE ADVECTION TERM
 (FOR PURE FINITE-DIFFERENCE OPTION, MIXELM=0) 
 =  3.810    (WHEN MIN. R.F.=1)  AT K=   2, I=   1, J=  42


 TOTAL NUMBER OF POINT SOURCES/SINKS PRESENT IN THE FLOW MODEL =    62

 MAXIMUM STEPSIZE WHICH MEETS STABILITY CRITERION OF THE SINK & SOURCE TERM
 =  686.5    (WHEN MIN. R.F.=1)  AT K=   2, I=   1, J=   1

 MAXIMUM STEPSIZE WHICH MEETS STABILITY CRITERION OF THE DISPERSION TERM
 =  20.29    (WHEN MIN. R.F.=1)  AT K=   1, I=   1, J=  31
     1 CALLS TO GCG PACKAGE FOR TRANSPORT TIME STEP   4 IN FLOW TIME STEP 523 STRESS PERIOD   1
     6 TOTAL ITERATIONS
  MAXIMUM CONCENTRATION CHANGES FOR EACH ITERATION:
  MAX. CHANGE LAYER,ROW,COL MAX. CHANGE LAYER,ROW,COL MAX. CHANGE LAYER,ROW,COL MAX. CHANGE LAYER,ROW,COL MAX. CHANGE LAYER,ROW,COL
 ------------------------------------------------------------------------------------------------------------------------------------
   0.2670E-01 (  2,  1, 79)  0.1340E-02 (  2,  1, 77)  0.5872E-04 (  3,  1, 77)  0.4100E-05 (  3,  1, 45)  0.1815E-06 (  4,  1, 45)
   0.6434E-08 (  5,  1, 45)


                                          ================================================
                                                         FROM TIME =   5230.0     TO    5240.0    

 
 SOLVING FOR HEAD 
 FLOW MODEL IS TRANSIENT
 FLOW MODEL CONTAINS CONSTANT-HEAD CELLS


 MAXIMUM STEPSIZE DURING WHICH ANY PARTICLE CANNOT MOVE MORE THAN ONE CELL
 =  5.926    (WHEN MIN. R.F.=1)  AT K=   6, I=   1, J=  47

 MAXIMUM STEPSIZE WHICH MEETS STABILITY CRITERION OF THE ADVECTION TERM
 (FOR PURE FINITE-DIFFERENCE OPTION, MIXELM=0) 
 =  3.732    (WHEN MIN. R.F.=1)  AT K=   2, I=   1, J=  42


 TOTAL NUMBER OF POINT SOURCES/SINKS PRESENT IN THE FLOW MODEL =    62

 MAXIMUM STEPSIZE WHICH MEETS STABILITY CRITERION OF THE SINK & SOURCE TERM
 =  726.8    (WHEN MIN. R.F.=1)  AT K=   2, I=   1, J=   1

 MAXIMUM STEPSIZE WHICH MEETS STABILITY CRITERION OF THE DISPERSION TERM
 =  20.29    (WHEN MIN. R.F.=1)  AT K=   1, I=   1, J=  31


     1 CALLS TO GCG PACKAGE FOR TRANSPORT TIME STEP   1 IN FLOW TIME STEP 524 STRESS PERIOD   1
     6 TOTAL ITERATIONS

 NO OUTPUT CONTROL FOR STRESS PERIOD    1   TIME STEP 524
 
 SOLVING FOR HEAD 
 FLOW MODEL IS TRANSIENT
 FLOW MODEL CONTAINS CONSTANT-HEAD CELLS


 MAXIMUM STEPSIZE DURING WHICH ANY PARTICLE CANNOT MOVE MORE THAN ONE CELL
 =  6.055    (WHEN MIN. R.F.=1)  AT K=  28, I=   1, J=  68

 MAXIMUM STEPSIZE WHICH MEETS STABILITY CRITERION OF THE ADVECTION TERM
 (FOR PURE FINITE-DIFFERENCE OPTION, MIXELM=0) 
 =  3.759    (WHEN MIN. R.F.=1)  AT K=   2, I=   1, J=  42


 TOTAL NUMBER OF POINT SOURCES/SINKS PRESENT IN THE FLOW MODEL =    62

 MAXIMUM STEPSIZE WHICH MEETS STABILITY CRITERION OF THE SINK & SOURCE TERM
 =  812.4    (WHEN MIN. R.F.=1)  AT K=   2, I=   1, J=   1

 MAXIMUM STEPSIZE WHICH MEETS STABILITY CRITERION OF THE DISPERSION TERM
 =  20.29    (WHEN MIN. R.F.=1)  AT K=   1, I=   1, J=  31
     1 CALLS TO GCG PACKAGE FOR TRANSPORT TIME STEP   2 IN FLOW TIME STEP 524 STRESS PERIOD   1
     6 TOTAL ITERATIONS
 
 SOLVING FOR HEAD 
 FLOW MODEL IS TRANSIENT
 FLOW MODEL CONTAINS CONSTANT-HEAD CELLS


 MAXIMUM STEPSIZE DURING WHICH ANY PARTICLE CANNOT MOVE MORE THAN ONE CELL
 =  6.044    (WHEN MIN. R.F.=1)  AT K=   4, I=   1, J=  48

 MAXIMUM STEPSIZE WHICH MEETS STABILITY CRITERION OF THE ADVECTION TERM
 (FOR PURE FINITE-DIFFERENCE OPTION, MIXELM=0) 
 =  3.822    (WHEN MIN. R.F.=1)  AT K=   2, I=   1, J=  77


 TOTAL NUMBER OF POINT SOURCES/SINKS PRESENT IN THE FLOW MODEL =    62

 MAXIMUM STEPSIZE WHICH MEETS STABILITY CRITERION OF THE SINK & SOURCE TERM
 =  1033.    (WHEN MIN. R.F.=1)  AT K=   2, I=   1, J=   1

 MAXIMUM STEPSIZE WHICH MEETS STABILITY CRITERION OF THE DISPERSION TERM
 =  20.29    (WHEN MIN. R.F.=1)  AT K=   1, I=   1, J=  31
     1 CALLS TO GCG PACKAGE FOR TRANSPORT TIME STEP   3 IN FLOW TIME STEP 524 STRESS PERIOD   1
     6 TOTAL ITERATIONS
 
 SOLVING FOR HEAD 
 FLOW MODEL IS TRANSIENT
 FLOW MODEL CONTAINS CONSTANT-HEAD CELLS


 MAXIMUM STEPSIZE DURING WHICH ANY PARTICLE CANNOT MOVE MORE THAN ONE CELL
 =  6.034    (WHEN MIN. R.F.=1)  AT K=   4, I=   1, J=  48

 MAXIMUM STEPSIZE WHICH MEETS STABILITY CRITERION OF THE ADVECTION TERM
 (FOR PURE FINITE-DIFFERENCE OPTION, MIXELM=0) 
 =  3.901    (WHEN MIN. R.F.=1)  AT K=   2, I=   1, J=  77


 TOTAL NUMBER OF POINT SOURCES/SINKS PRESENT IN THE FLOW MODEL =    62

 MAXIMUM STEPSIZE WHICH MEETS STABILITY CRITERION OF THE SINK & SOURCE TERM
 =  1138.    (WHEN MIN. R.F.=1)  AT K=   2, I=   1, J=   1

 MAXIMUM STEPSIZE WHICH MEETS STABILITY CRITERION OF THE DISPERSION TERM
 =  20.29    (WHEN MIN. R.F.=1)  AT K=   1, I=   1, J=  31
     1 CALLS TO GCG PACKAGE FOR TRANSPORT TIME STEP   4 IN FLOW TIME STEP 524 STRESS PERIOD   1
     5 TOTAL ITERATIONS
  MAXIMUM CONCENTRATION CHANGES FOR EACH ITERATION:
  MAX. CHANGE LAYER,ROW,COL MAX. CHANGE LAYER,ROW,COL MAX. CHANGE LAYER,ROW,COL MAX. CHANGE LAYER,ROW,COL MAX. CHANGE LAYER,ROW,COL
 ------------------------------------------------------------------------------------------------------------------------------------
   0.1918E-01 (  2,  1, 78)  0.4406E-03 (  2,  1, 75)  0.1426E-04 (  2,  1, 79)  0.5360E-06 (  3,  1, 79)  0.1370E-07 (  4,  1, 78)


                                          ================================================
                                                         FROM TIME =   5240.0     TO    5250.0    

 
 SOLVING FOR HEAD 
 FLOW MODEL IS TRANSIENT
 FLOW MODEL CONTAINS CONSTANT-HEAD CELLS


 MAXIMUM STEPSIZE DURING WHICH ANY PARTICLE CANNOT MOVE MORE THAN ONE CELL
 =  6.039    (WHEN MIN. R.F.=1)  AT K=   4, I=   1, J=  48

 MAXIMUM STEPSIZE WHICH MEETS STABILITY CRITERION OF THE ADVECTION TERM
 (FOR PURE FINITE-DIFFERENCE OPTION, MIXELM=0) 
 =  3.923    (WHEN MIN. R.F.=1)  AT K=   2, I=   1, J=  43


 TOTAL NUMBER OF POINT SOURCES/SINKS PRESENT IN THE FLOW MODEL =    62

 MAXIMUM STEPSIZE WHICH MEETS STABILITY CRITERION OF THE SINK & SOURCE TERM
 =  1403.    (WHEN MIN. R.F.=1)  AT K=   2, I=   1, J=   1

 MAXIMUM STEPSIZE WHICH MEETS STABILITY CRITERION OF THE DISPERSION TERM
 =  20.29    (WHEN MIN. R.F.=1)  AT K=   1, I=   1, J=  31


     1 CALLS TO GCG PACKAGE FOR TRANSPORT TIME STEP   1 IN FLOW TIME STEP 525 STRESS PERIOD   1
     6 TOTAL ITERATIONS

 NO OUTPUT CONTROL FOR STRESS PERIOD    1   TIME STEP 525
 
 SOLVING FOR HEAD 
 FLOW MODEL IS TRANSIENT
 FLOW MODEL CONTAINS CONSTANT-HEAD CELLS


 MAXIMUM STEPSIZE DURING WHICH ANY PARTICLE CANNOT MOVE MORE THAN ONE CELL
 =  6.063    (WHEN MIN. R.F.=1)  AT K=   4, I=   1, J=  48

 MAXIMUM STEPSIZE WHICH MEETS STABILITY CRITERION OF THE ADVECTION TERM
 (FOR PURE FINITE-DIFFERENCE OPTION, MIXELM=0) 
 =  3.780    (WHEN MIN. R.F.=1)  AT K=   2, I=   1, J=  43


 TOTAL NUMBER OF POINT SOURCES/SINKS PRESENT IN THE FLOW MODEL =    62

 MAXIMUM STEPSIZE WHICH MEETS STABILITY CRITERION OF THE SINK & SOURCE TERM
 =  1289.    (WHEN MIN. R.F.=1)  AT K=   2, I=   1, J=   1

 MAXIMUM STEPSIZE WHICH MEETS STABILITY CRITERION OF THE DISPERSION TERM
 =  20.29    (WHEN MIN. R.F.=1)  AT K=   1, I=   1, J=  31
     1 CALLS TO GCG PACKAGE FOR TRANSPORT TIME STEP   2 IN FLOW TIME STEP 525 STRESS PERIOD   1
     6 TOTAL ITERATIONS
 
 SOLVING FOR HEAD 
 FLOW MODEL IS TRANSIENT
 FLOW MODEL CONTAINS CONSTANT-HEAD CELLS


 MAXIMUM STEPSIZE DURING WHICH ANY PARTICLE CANNOT MOVE MORE THAN ONE CELL
 =  6.107    (WHEN MIN. R.F.=1)  AT K=   4, I=   1, J=  48

 MAXIMUM STEPSIZE WHICH MEETS STABILITY CRITERION OF THE ADVECTION TERM
 (FOR PURE FINITE-DIFFERENCE OPTION, MIXELM=0) 
 =  3.779    (WHEN MIN. R.F.=1)  AT K=   2, I=   1, J=  43


 TOTAL NUMBER OF POINT SOURCES/SINKS PRESENT IN THE FLOW MODEL =    62

 MAXIMUM STEPSIZE WHICH MEETS STABILITY CRITERION OF THE SINK & SOURCE TERM
 =  1514.    (WHEN MIN. R.F.=1)  AT K=   2, I=   1, J=   1

 MAXIMUM STEPSIZE WHICH MEETS STABILITY CRITERION OF THE DISPERSION TERM
 =  20.29    (WHEN MIN. R.F.=1)  AT K=   1, I=   1, J=  31
     1 CALLS TO GCG PACKAGE FOR TRANSPORT TIME STEP   3 IN FLOW TIME STEP 525 STRESS PERIOD   1
     6 TOTAL ITERATIONS
 
 SOLVING FOR HEAD 
 FLOW MODEL IS TRANSIENT
 FLOW MODEL CONTAINS CONSTANT-HEAD CELLS


 MAXIMUM STEPSIZE DURING WHICH ANY PARTICLE CANNOT MOVE MORE THAN ONE CELL
 =  6.163    (WHEN MIN. R.F.=1)  AT K=   5, I=   1, J=  48

 MAXIMUM STEPSIZE WHICH MEETS STABILITY CRITERION OF THE ADVECTION TERM
 (FOR PURE FINITE-DIFFERENCE OPTION, MIXELM=0) 
 =  3.884    (WHEN MIN. R.F.=1)  AT K=   2, I=   1, J=  43


 TOTAL NUMBER OF POINT SOURCES/SINKS PRESENT IN THE FLOW MODEL =    62

 MAXIMUM STEPSIZE WHICH MEETS STABILITY CRITERION OF THE SINK & SOURCE TERM
 =  1835.    (WHEN MIN. R.F.=1)  AT K=   2, I=   1, J=   1

 MAXIMUM STEPSIZE WHICH MEETS STABILITY CRITERION OF THE DISPERSION TERM
 =  20.29    (WHEN MIN. R.F.=1)  AT K=   1, I=   1, J=  31
     1 CALLS TO GCG PACKAGE FOR TRANSPORT TIME STEP   4 IN FLOW TIME STEP 525 STRESS PERIOD   1
     5 TOTAL ITERATIONS
  MAXIMUM CONCENTRATION CHANGES FOR EACH ITERATION:
  MAX. CHANGE LAYER,ROW,COL MAX. CHANGE LAYER,ROW,COL MAX. CHANGE LAYER,ROW,COL MAX. CHANGE LAYER,ROW,COL MAX. CHANGE LAYER,ROW,COL
 ------------------------------------------------------------------------------------------------------------------------------------
   0.1378E-01 (  2,  1, 42)  0.3117E-03 (  2,  1, 76)  0.7533E-05 (  3,  1, 44)  0.2039E-06 (  3,  1, 41)  0.6162E-08 (  3,  1, 33)


                                          ================================================
                                                         FROM TIME =   5250.0     TO    5260.0    

 
 SOLVING FOR HEAD 
 FLOW MODEL IS TRANSIENT
 FLOW MODEL CONTAINS CONSTANT-HEAD CELLS


 MAXIMUM STEPSIZE DURING WHICH ANY PARTICLE CANNOT MOVE MORE THAN ONE CELL
 =  6.190    (WHEN MIN. R.F.=1)  AT K=   5, I=   1, J=  48

 MAXIMUM STEPSIZE WHICH MEETS STABILITY CRITERION OF THE ADVECTION TERM
 (FOR PURE FINITE-DIFFERENCE OPTION, MIXELM=0) 
 =  3.991    (WHEN MIN. R.F.=1)  AT K=   2, I=   1, J=  43


 TOTAL NUMBER OF POINT SOURCES/SINKS PRESENT IN THE FLOW MODEL =    62

 MAXIMUM STEPSIZE WHICH MEETS STABILITY CRITERION OF THE SINK & SOURCE TERM
 =  3639.    (WHEN MIN. R.F.=1)  AT K=   2, I=   1, J=   1

 MAXIMUM STEPSIZE WHICH MEETS STABILITY CRITERION OF THE DISPERSION TERM
 =  20.29    (WHEN MIN. R.F.=1)  AT K=   1, I=   1, J=  31


     1 CALLS TO GCG PACKAGE FOR TRANSPORT TIME STEP   1 IN FLOW TIME STEP 526 STRESS PERIOD   1
     6 TOTAL ITERATIONS

 NO OUTPUT CONTROL FOR STRESS PERIOD    1   TIME STEP 526
 
 SOLVING FOR HEAD 
 FLOW MODEL IS TRANSIENT
 FLOW MODEL CONTAINS CONSTANT-HEAD CELLS


 MAXIMUM STEPSIZE DURING WHICH ANY PARTICLE CANNOT MOVE MORE THAN ONE CELL
 =  6.261    (WHEN MIN. R.F.=1)  AT K=   5, I=   1, J=  48

 MAXIMUM STEPSIZE WHICH MEETS STABILITY CRITERION OF THE ADVECTION TERM
 (FOR PURE FINITE-DIFFERENCE OPTION, MIXELM=0) 
 =  4.255    (WHEN MIN. R.F.=1)  AT K=   2, I=   1, J=  76


 TOTAL NUMBER OF POINT SOURCES/SINKS PRESENT IN THE FLOW MODEL =    62

 MAXIMUM STEPSIZE WHICH MEETS STABILITY CRITERION OF THE SINK & SOURCE TERM
 =  2768.    (WHEN MIN. R.F.=1)  AT K=   2, I=   1, J=   1

 MAXIMUM STEPSIZE WHICH MEETS STABILITY CRITERION OF THE DISPERSION TERM
 =  20.29    (WHEN MIN. R.F.=1)  AT K=   1, I=   1, J=  31
     1 CALLS TO GCG PACKAGE FOR TRANSPORT TIME STEP   2 IN FLOW TIME STEP 526 STRESS PERIOD   1
     6 TOTAL ITERATIONS
 
 SOLVING FOR HEAD 
 FLOW MODEL IS TRANSIENT
 FLOW MODEL CONTAINS CONSTANT-HEAD CELLS


 MAXIMUM STEPSIZE DURING WHICH ANY PARTICLE CANNOT MOVE MORE THAN ONE CELL
 =  6.353    (WHEN MIN. R.F.=1)  AT K=  27, I=   1, J=  68

 MAXIMUM STEPSIZE WHICH MEETS STABILITY CRITERION OF THE ADVECTION TERM
 (FOR PURE FINITE-DIFFERENCE OPTION, MIXELM=0) 
 =  4.023    (WHEN MIN. R.F.=1)  AT K=   2, I=   1, J=  44


 TOTAL NUMBER OF POINT SOURCES/SINKS PRESENT IN THE FLOW MODEL =    62

 MAXIMUM STEPSIZE WHICH MEETS STABILITY CRITERION OF THE SINK & SOURCE TERM
 =  3183.    (WHEN MIN. R.F.=1)  AT K=   2, I=   1, J=   1

 MAXIMUM STEPSIZE WHICH MEETS STABILITY CRITERION OF THE DISPERSION TERM
 =  20.29    (WHEN MIN. R.F.=1)  AT K=   1, I=   1, J=  31
     1 CALLS TO GCG PACKAGE FOR TRANSPORT TIME STEP   3 IN FLOW TIME STEP 526 STRESS PERIOD   1
     6 TOTAL ITERATIONS
 
 SOLVING FOR HEAD 
 FLOW MODEL IS TRANSIENT
 FLOW MODEL CONTAINS CONSTANT-HEAD CELLS


 MAXIMUM STEPSIZE DURING WHICH ANY PARTICLE CANNOT MOVE MORE THAN ONE CELL
 =  6.422    (WHEN MIN. R.F.=1)  AT K=  27, I=   1, J=  68

 MAXIMUM STEPSIZE WHICH MEETS STABILITY CRITERION OF THE ADVECTION TERM
 (FOR PURE FINITE-DIFFERENCE OPTION, MIXELM=0) 
 =  3.918    (WHEN MIN. R.F.=1)  AT K=   2, I=   1, J=  44


 TOTAL NUMBER OF POINT SOURCES/SINKS PRESENT IN THE FLOW MODEL =    62

 MAXIMUM STEPSIZE WHICH MEETS STABILITY CRITERION OF THE SINK & SOURCE TERM
 =  3163.    (WHEN MIN. R.F.=1)  AT K=   2, I=   1, J=   1

 MAXIMUM STEPSIZE WHICH MEETS STABILITY CRITERION OF THE DISPERSION TERM
 =  20.29    (WHEN MIN. R.F.=1)  AT K=   1, I=   1, J=  31
     1 CALLS TO GCG PACKAGE FOR TRANSPORT TIME STEP   4 IN FLOW TIME STEP 526 STRESS PERIOD   1
     4 TOTAL ITERATIONS
  MAXIMUM CONCENTRATION CHANGES FOR EACH ITERATION:
  MAX. CHANGE LAYER,ROW,COL MAX. CHANGE LAYER,ROW,COL MAX. CHANGE LAYER,ROW,COL MAX. CHANGE LAYER,ROW,COL MAX. CHANGE LAYER,ROW,COL
 ------------------------------------------------------------------------------------------------------------------------------------
   0.1089E-01 (  2,  1, 77)  0.1451E-03 (  2,  1, 46)  0.2965E-05 (  3,  1, 46)  0.6957E-07 (  3,  1, 78)


                                          ================================================
                                                         FROM TIME =   5260.0     TO    5270.0    

 
 SOLVING FOR HEAD 
 FLOW MODEL IS TRANSIENT
 FLOW MODEL CONTAINS CONSTANT-HEAD CELLS


 MAXIMUM STEPSIZE DURING WHICH ANY PARTICLE CANNOT MOVE MORE THAN ONE CELL
 =  6.436    (WHEN MIN. R.F.=1)  AT K=  28, I=   1, J=  52

 MAXIMUM STEPSIZE WHICH MEETS STABILITY CRITERION OF THE ADVECTION TERM
 (FOR PURE FINITE-DIFFERENCE OPTION, MIXELM=0) 
 =  3.921    (WHEN MIN. R.F.=1)  AT K=   2, I=   1, J=  44


 TOTAL NUMBER OF POINT SOURCES/SINKS PRESENT IN THE FLOW MODEL =    62

 MAXIMUM STEPSIZE WHICH MEETS STABILITY CRITERION OF THE SINK & SOURCE TERM
 =  9550.    (WHEN MIN. R.F.=1)  AT K=   2, I=   1, J=   1

 MAXIMUM STEPSIZE WHICH MEETS STABILITY CRITERION OF THE DISPERSION TERM
 =  20.29    (WHEN MIN. R.F.=1)  AT K=   1, I=   1, J=  31


     1 CALLS TO GCG PACKAGE FOR TRANSPORT TIME STEP   1 IN FLOW TIME STEP 527 STRESS PERIOD   1
     6 TOTAL ITERATIONS

 NO OUTPUT CONTROL FOR STRESS PERIOD    1   TIME STEP 527
 
 SOLVING FOR HEAD 
 FLOW MODEL IS TRANSIENT
 FLOW MODEL CONTAINS CONSTANT-HEAD CELLS


 MAXIMUM STEPSIZE DURING WHICH ANY PARTICLE CANNOT MOVE MORE THAN ONE CELL
 =  6.436    (WHEN MIN. R.F.=1)  AT K=  28, I=   1, J=  52

 MAXIMUM STEPSIZE WHICH MEETS STABILITY CRITERION OF THE ADVECTION TERM
 (FOR PURE FINITE-DIFFERENCE OPTION, MIXELM=0) 
 =  3.997    (WHEN MIN. R.F.=1)  AT K=   2, I=   1, J=  44


 TOTAL NUMBER OF POINT SOURCES/SINKS PRESENT IN THE FLOW MODEL =    62

 MAXIMUM STEPSIZE WHICH MEETS STABILITY CRITERION OF THE SINK & SOURCE TERM
 =  4159.    (WHEN MIN. R.F.=1)  AT K=   2, I=   1, J=   1

 MAXIMUM STEPSIZE WHICH MEETS STABILITY CRITERION OF THE DISPERSION TERM
 =  20.29    (WHEN MIN. R.F.=1)  AT K=   1, I=   1, J=  31
     1 CALLS TO GCG PACKAGE FOR TRANSPORT TIME STEP   2 IN FLOW TIME STEP 527 STRESS PERIOD   1
     6 TOTAL ITERATIONS
 
 SOLVING FOR HEAD 
 FLOW MODEL IS TRANSIENT
 FLOW MODEL CONTAINS CONSTANT-HEAD CELLS


 MAXIMUM STEPSIZE DURING WHICH ANY PARTICLE CANNOT MOVE MORE THAN ONE CELL
 =  6.436    (WHEN MIN. R.F.=1)  AT K=   4, I=   1, J=  74

 MAXIMUM STEPSIZE WHICH MEETS STABILITY CRITERION OF THE ADVECTION TERM
 (FOR PURE FINITE-DIFFERENCE OPTION, MIXELM=0) 
 =  4.199    (WHEN MIN. R.F.=1)  AT K=   2, I=   1, J=  44


 TOTAL NUMBER OF POINT SOURCES/SINKS PRESENT IN THE FLOW MODEL =    62

 MAXIMUM STEPSIZE WHICH MEETS STABILITY CRITERION OF THE SINK & SOURCE TERM
 =  4543.    (WHEN MIN. R.F.=1)  AT K=   2, I=   1, J=   1

 MAXIMUM STEPSIZE WHICH MEETS STABILITY CRITERION OF THE DISPERSION TERM
 =  20.29    (WHEN MIN. R.F.=1)  AT K=   1, I=   1, J=  31
     1 CALLS TO GCG PACKAGE FOR TRANSPORT TIME STEP   3 IN FLOW TIME STEP 527 STRESS PERIOD   1
     6 TOTAL ITERATIONS
 
 SOLVING FOR HEAD 
 FLOW MODEL IS TRANSIENT
 FLOW MODEL CONTAINS CONSTANT-HEAD CELLS


 MAXIMUM STEPSIZE DURING WHICH ANY PARTICLE CANNOT MOVE MORE THAN ONE CELL
 =  6.009    (WHEN MIN. R.F.=1)  AT K=   4, I=   1, J=  74

 MAXIMUM STEPSIZE WHICH MEETS STABILITY CRITERION OF THE ADVECTION TERM
 (FOR PURE FINITE-DIFFERENCE OPTION, MIXELM=0) 
 =  4.389    (WHEN MIN. R.F.=1)  AT K=   2, I=   1, J=  75


 TOTAL NUMBER OF POINT SOURCES/SINKS PRESENT IN THE FLOW MODEL =    62

 MAXIMUM STEPSIZE WHICH MEETS STABILITY CRITERION OF THE SINK & SOURCE TERM
 =  3476.    (WHEN MIN. R.F.=1)  AT K=   2, I=   1, J=   1

 MAXIMUM STEPSIZE WHICH MEETS STABILITY CRITERION OF THE DISPERSION TERM
 =  20.29    (WHEN MIN. R.F.=1)  AT K=   1, I=   1, J=  31
     1 CALLS TO GCG PACKAGE FOR TRANSPORT TIME STEP   4 IN FLOW TIME STEP 527 STRESS PERIOD   1
     5 TOTAL ITERATIONS
  MAXIMUM CONCENTRATION CHANGES FOR EACH ITERATION:
  MAX. CHANGE LAYER,ROW,COL MAX. CHANGE LAYER,ROW,COL MAX. CHANGE LAYER,ROW,COL MAX. CHANGE LAYER,ROW,COL MAX. CHANGE LAYER,ROW,COL
 ------------------------------------------------------------------------------------------------------------------------------------
   0.1394E-01 (  2,  1, 83)  0.2267E-03 (  2,  1, 45)  0.4804E-05 (  2,  1, 77)  0.1457E-06 (  3,  1, 77)  0.3317E-08 (  4,  1, 46)


                                          ================================================
                                                         FROM TIME =   5270.0     TO    5280.0    

 
 SOLVING FOR HEAD 
 FLOW MODEL IS TRANSIENT
 FLOW MODEL CONTAINS CONSTANT-HEAD CELLS


 MAXIMUM STEPSIZE DURING WHICH ANY PARTICLE CANNOT MOVE MORE THAN ONE CELL
 =  5.863    (WHEN MIN. R.F.=1)  AT K=   4, I=   1, J=  74

 MAXIMUM STEPSIZE WHICH MEETS STABILITY CRITERION OF THE ADVECTION TERM
 (FOR PURE FINITE-DIFFERENCE OPTION, MIXELM=0) 
 =  4.376    (WHEN MIN. R.F.=1)  AT K=   2, I=   1, J=  75


 TOTAL NUMBER OF POINT SOURCES/SINKS PRESENT IN THE FLOW MODEL =    62

 MAXIMUM STEPSIZE WHICH MEETS STABILITY CRITERION OF THE SINK & SOURCE TERM
 =  7132.    (WHEN MIN. R.F.=1)  AT K=   2, I=   1, J=   1

 MAXIMUM STEPSIZE WHICH MEETS STABILITY CRITERION OF THE DISPERSION TERM
 =  20.29    (WHEN MIN. R.F.=1)  AT K=   1, I=   1, J=  31


     1 CALLS TO GCG PACKAGE FOR TRANSPORT TIME STEP   1 IN FLOW TIME STEP 528 STRESS PERIOD   1
     6 TOTAL ITERATIONS

 NO OUTPUT CONTROL FOR STRESS PERIOD    1   TIME STEP 528
 
 SOLVING FOR HEAD 
 FLOW MODEL IS TRANSIENT
 FLOW MODEL CONTAINS CONSTANT-HEAD CELLS


 MAXIMUM STEPSIZE DURING WHICH ANY PARTICLE CANNOT MOVE MORE THAN ONE CELL
 =  5.508    (WHEN MIN. R.F.=1)  AT K=   4, I=   1, J=  74

 MAXIMUM STEPSIZE WHICH MEETS STABILITY CRITERION OF THE ADVECTION TERM
 (FOR PURE FINITE-DIFFERENCE OPTION, MIXELM=0) 
 =  4.049    (WHEN MIN. R.F.=1)  AT K=   2, I=   1, J=  81


 TOTAL NUMBER OF POINT SOURCES/SINKS PRESENT IN THE FLOW MODEL =    62

 MAXIMUM STEPSIZE WHICH MEETS STABILITY CRITERION OF THE SINK & SOURCE TERM
 =  3005.    (WHEN MIN. R.F.=1)  AT K=   2, I=   1, J=   1

 MAXIMUM STEPSIZE WHICH MEETS STABILITY CRITERION OF THE DISPERSION TERM
 =  20.29    (WHEN MIN. R.F.=1)  AT K=   1, I=   1, J=  31
     1 CALLS TO GCG PACKAGE FOR TRANSPORT TIME STEP   2 IN FLOW TIME STEP 528 STRESS PERIOD   1
     6 TOTAL ITERATIONS
 
 SOLVING FOR HEAD 
 FLOW MODEL IS TRANSIENT
 FLOW MODEL CONTAINS CONSTANT-HEAD CELLS


 MAXIMUM STEPSIZE DURING WHICH ANY PARTICLE CANNOT MOVE MORE THAN ONE CELL
 =  5.250    (WHEN MIN. R.F.=1)  AT K=   4, I=   1, J=  74

 MAXIMUM STEPSIZE WHICH MEETS STABILITY CRITERION OF THE ADVECTION TERM
 (FOR PURE FINITE-DIFFERENCE OPTION, MIXELM=0) 
 =  3.870    (WHEN MIN. R.F.=1)  AT K=   2, I=   1, J=  81


 TOTAL NUMBER OF POINT SOURCES/SINKS PRESENT IN THE FLOW MODEL =    62

 MAXIMUM STEPSIZE WHICH MEETS STABILITY CRITERION OF THE SINK & SOURCE TERM
 =  4075.    (WHEN MIN. R.F.=1)  AT K=   2, I=   1, J=   1

 MAXIMUM STEPSIZE WHICH MEETS STABILITY CRITERION OF THE DISPERSION TERM
 =  20.29    (WHEN MIN. R.F.=1)  AT K=   1, I=   1, J=  31
     1 CALLS TO GCG PACKAGE FOR TRANSPORT TIME STEP   3 IN FLOW TIME STEP 528 STRESS PERIOD   1
     6 TOTAL ITERATIONS
 
 SOLVING FOR HEAD 
 FLOW MODEL IS TRANSIENT
 FLOW MODEL CONTAINS CONSTANT-HEAD CELLS


 MAXIMUM STEPSIZE DURING WHICH ANY PARTICLE CANNOT MOVE MORE THAN ONE CELL
 =  5.086    (WHEN MIN. R.F.=1)  AT K=   4, I=   1, J=  74

 MAXIMUM STEPSIZE WHICH MEETS STABILITY CRITERION OF THE ADVECTION TERM
 (FOR PURE FINITE-DIFFERENCE OPTION, MIXELM=0) 
 =  3.944    (WHEN MIN. R.F.=1)  AT K=   2, I=   1, J=  81


 TOTAL NUMBER OF POINT SOURCES/SINKS PRESENT IN THE FLOW MODEL =    62

 MAXIMUM STEPSIZE WHICH MEETS STABILITY CRITERION OF THE SINK & SOURCE TERM
 =  3385.    (WHEN MIN. R.F.=1)  AT K=   2, I=   1, J=   1

 MAXIMUM STEPSIZE WHICH MEETS STABILITY CRITERION OF THE DISPERSION TERM
 =  20.29    (WHEN MIN. R.F.=1)  AT K=   1, I=   1, J=  31
     1 CALLS TO GCG PACKAGE FOR TRANSPORT TIME STEP   4 IN FLOW TIME STEP 528 STRESS PERIOD   1
     4 TOTAL ITERATIONS
  MAXIMUM CONCENTRATION CHANGES FOR EACH ITERATION:
  MAX. CHANGE LAYER,ROW,COL MAX. CHANGE LAYER,ROW,COL MAX. CHANGE LAYER,ROW,COL MAX. CHANGE LAYER,ROW,COL MAX. CHANGE LAYER,ROW,COL
 ------------------------------------------------------------------------------------------------------------------------------------
   0.5016E-02 (  2,  1, 82)  0.3148E-04 (  2,  1, 82)  0.2641E-06 (  2,  1, 83)  0.2258E-08 (  3,  1, 83)


                                          ================================================
                                                         FROM TIME =   5280.0     TO    5290.0    

 
 SOLVING FOR HEAD 
 FLOW MODEL IS TRANSIENT
 FLOW MODEL CONTAINS CONSTANT-HEAD CELLS


 MAXIMUM STEPSIZE DURING WHICH ANY PARTICLE CANNOT MOVE MORE THAN ONE CELL
 =  5.069    (WHEN MIN. R.F.=1)  AT K=   4, I=   1, J=  74

 MAXIMUM STEPSIZE WHICH MEETS STABILITY CRITERION OF THE ADVECTION TERM
 (FOR PURE FINITE-DIFFERENCE OPTION, MIXELM=0) 
 =  3.983    (WHEN MIN. R.F.=1)  AT K=   2, I=   1, J=  81


 TOTAL NUMBER OF POINT SOURCES/SINKS PRESENT IN THE FLOW MODEL =    62

 MAXIMUM STEPSIZE WHICH MEETS STABILITY CRITERION OF THE SINK & SOURCE TERM
 =  7991.    (WHEN MIN. R.F.=1)  AT K=   2, I=   1, J=   1

 MAXIMUM STEPSIZE WHICH MEETS STABILITY CRITERION OF THE DISPERSION TERM
 =  20.29    (WHEN MIN. R.F.=1)  AT K=   1, I=   1, J=  31


     1 CALLS TO GCG PACKAGE FOR TRANSPORT TIME STEP   1 IN FLOW TIME STEP 529 STRESS PERIOD   1
     6 TOTAL ITERATIONS

 NO OUTPUT CONTROL FOR STRESS PERIOD    1   TIME STEP 529
 
 SOLVING FOR HEAD 
 FLOW MODEL IS TRANSIENT
 FLOW MODEL CONTAINS CONSTANT-HEAD CELLS


 MAXIMUM STEPSIZE DURING WHICH ANY PARTICLE CANNOT MOVE MORE THAN ONE CELL
 =  4.985    (WHEN MIN. R.F.=1)  AT K=   4, I=   1, J=  74

 MAXIMUM STEPSIZE WHICH MEETS STABILITY CRITERION OF THE ADVECTION TERM
 (FOR PURE FINITE-DIFFERENCE OPTION, MIXELM=0) 
 =  3.921    (WHEN MIN. R.F.=1)  AT K=   2, I=   1, J=  80


 TOTAL NUMBER OF POINT SOURCES/SINKS PRESENT IN THE FLOW MODEL =    62

 MAXIMUM STEPSIZE WHICH MEETS STABILITY CRITERION OF THE SINK & SOURCE TERM
 =  2751.    (WHEN MIN. R.F.=1)  AT K=   2, I=   1, J=   1

 MAXIMUM STEPSIZE WHICH MEETS STABILITY CRITERION OF THE DISPERSION TERM
 =  20.29    (WHEN MIN. R.F.=1)  AT K=   1, I=   1, J=  31
     1 CALLS TO GCG PACKAGE FOR TRANSPORT TIME STEP   2 IN FLOW TIME STEP 529 STRESS PERIOD   1
     6 TOTAL ITERATIONS
 
 SOLVING FOR HEAD 
 FLOW MODEL IS TRANSIENT
 FLOW MODEL CONTAINS CONSTANT-HEAD CELLS


 MAXIMUM STEPSIZE DURING WHICH ANY PARTICLE CANNOT MOVE MORE THAN ONE CELL
 =  4.964    (WHEN MIN. R.F.=1)  AT K=   4, I=   1, J=  74

 MAXIMUM STEPSIZE WHICH MEETS STABILITY CRITERION OF THE ADVECTION TERM
 (FOR PURE FINITE-DIFFERENCE OPTION, MIXELM=0) 
 =  3.648    (WHEN MIN. R.F.=1)  AT K=   2, I=   1, J=  80


 TOTAL NUMBER OF POINT SOURCES/SINKS PRESENT IN THE FLOW MODEL =    62

 MAXIMUM STEPSIZE WHICH MEETS STABILITY CRITERION OF THE SINK & SOURCE TERM
 =  2102.    (WHEN MIN. R.F.=1)  AT K=   2, I=   1, J=   1

 MAXIMUM STEPSIZE WHICH MEETS STABILITY CRITERION OF THE DISPERSION TERM
 =  20.29    (WHEN MIN. R.F.=1)  AT K=   1, I=   1, J=  31
     1 CALLS TO GCG PACKAGE FOR TRANSPORT TIME STEP   3 IN FLOW TIME STEP 529 STRESS PERIOD   1
     6 TOTAL ITERATIONS
 
 SOLVING FOR HEAD 
 FLOW MODEL IS TRANSIENT
 FLOW MODEL CONTAINS CONSTANT-HEAD CELLS


 MAXIMUM STEPSIZE DURING WHICH ANY PARTICLE CANNOT MOVE MORE THAN ONE CELL
 =  4.995    (WHEN MIN. R.F.=1)  AT K=   4, I=   1, J=  74

 MAXIMUM STEPSIZE WHICH MEETS STABILITY CRITERION OF THE ADVECTION TERM
 (FOR PURE FINITE-DIFFERENCE OPTION, MIXELM=0) 
 =  3.584    (WHEN MIN. R.F.=1)  AT K=   2, I=   1, J=  80


 TOTAL NUMBER OF POINT SOURCES/SINKS PRESENT IN THE FLOW MODEL =    62

 MAXIMUM STEPSIZE WHICH MEETS STABILITY CRITERION OF THE SINK & SOURCE TERM
 =  1881.    (WHEN MIN. R.F.=1)  AT K=   2, I=   1, J= 120

 MAXIMUM STEPSIZE WHICH MEETS STABILITY CRITERION OF THE DISPERSION TERM
 =  20.29    (WHEN MIN. R.F.=1)  AT K=   1, I=   1, J=  31
     1 CALLS TO GCG PACKAGE FOR TRANSPORT TIME STEP   4 IN FLOW TIME STEP 529 STRESS PERIOD   1
     5 TOTAL ITERATIONS
  MAXIMUM CONCENTRATION CHANGES FOR EACH ITERATION:
  MAX. CHANGE LAYER,ROW,COL MAX. CHANGE LAYER,ROW,COL MAX. CHANGE LAYER,ROW,COL MAX. CHANGE LAYER,ROW,COL MAX. CHANGE LAYER,ROW,COL
 ------------------------------------------------------------------------------------------------------------------------------------
   0.1322E-01 (  2,  1, 81)  0.2276E-03 (  2,  1, 81)  0.6770E-05 (  3,  1, 79)  0.1607E-06 (  3,  1, 77)  0.3550E-08 (  4,  1, 77)


                                          ================================================
                                                         FROM TIME =   5290.0     TO    5300.0    

 
 SOLVING FOR HEAD 
 FLOW MODEL IS TRANSIENT
 FLOW MODEL CONTAINS CONSTANT-HEAD CELLS


 MAXIMUM STEPSIZE DURING WHICH ANY PARTICLE CANNOT MOVE MORE THAN ONE CELL
 =  5.021    (WHEN MIN. R.F.=1)  AT K=   4, I=   1, J=  74

 MAXIMUM STEPSIZE WHICH MEETS STABILITY CRITERION OF THE ADVECTION TERM
 (FOR PURE FINITE-DIFFERENCE OPTION, MIXELM=0) 
 =  3.614    (WHEN MIN. R.F.=1)  AT K=   2, I=   1, J=  80


 TOTAL NUMBER OF POINT SOURCES/SINKS PRESENT IN THE FLOW MODEL =    62

 MAXIMUM STEPSIZE WHICH MEETS STABILITY CRITERION OF THE SINK & SOURCE TERM
 =  8811.    (WHEN MIN. R.F.=1)  AT K=   2, I=   1, J=   1

 MAXIMUM STEPSIZE WHICH MEETS STABILITY CRITERION OF THE DISPERSION TERM
 =  20.29    (WHEN MIN. R.F.=1)  AT K=   1, I=   1, J=  31


     1 CALLS TO GCG PACKAGE FOR TRANSPORT TIME STEP   1 IN FLOW TIME STEP 530 STRESS PERIOD   1
     6 TOTAL ITERATIONS

 NO OUTPUT CONTROL FOR STRESS PERIOD    1   TIME STEP 530
 
 SOLVING FOR HEAD 
 FLOW MODEL IS TRANSIENT
 FLOW MODEL CONTAINS CONSTANT-HEAD CELLS


 MAXIMUM STEPSIZE DURING WHICH ANY PARTICLE CANNOT MOVE MORE THAN ONE CELL
 =  5.089    (WHEN MIN. R.F.=1)  AT K=   5, I=   1, J=  74

 MAXIMUM STEPSIZE WHICH MEETS STABILITY CRITERION OF THE ADVECTION TERM
 (FOR PURE FINITE-DIFFERENCE OPTION, MIXELM=0) 
 =  3.828    (WHEN MIN. R.F.=1)  AT K=   2, I=   1, J=  80


 TOTAL NUMBER OF POINT SOURCES/SINKS PRESENT IN THE FLOW MODEL =    62

 MAXIMUM STEPSIZE WHICH MEETS STABILITY CRITERION OF THE SINK & SOURCE TERM
 =  3009.    (WHEN MIN. R.F.=1)  AT K=   2, I=   1, J= 120

 MAXIMUM STEPSIZE WHICH MEETS STABILITY CRITERION OF THE DISPERSION TERM
 =  20.29    (WHEN MIN. R.F.=1)  AT K=   1, I=   1, J=  31
     1 CALLS TO GCG PACKAGE FOR TRANSPORT TIME STEP   2 IN FLOW TIME STEP 530 STRESS PERIOD   1
     6 TOTAL ITERATIONS
 
 SOLVING FOR HEAD 
 FLOW MODEL IS TRANSIENT
 FLOW MODEL CONTAINS CONSTANT-HEAD CELLS


 MAXIMUM STEPSIZE DURING WHICH ANY PARTICLE CANNOT MOVE MORE THAN ONE CELL
 =  5.154    (WHEN MIN. R.F.=1)  AT K=   5, I=   1, J=  74

 MAXIMUM STEPSIZE WHICH MEETS STABILITY CRITERION OF THE ADVECTION TERM
 (FOR PURE FINITE-DIFFERENCE OPTION, MIXELM=0) 
 =  3.800    (WHEN MIN. R.F.=1)  AT K=   2, I=   1, J=  79


 TOTAL NUMBER OF POINT SOURCES/SINKS PRESENT IN THE FLOW MODEL =    62

 MAXIMUM STEPSIZE WHICH MEETS STABILITY CRITERION OF THE SINK & SOURCE TERM
 =  2423.    (WHEN MIN. R.F.=1)  AT K=   2, I=   1, J= 120

 MAXIMUM STEPSIZE WHICH MEETS STABILITY CRITERION OF THE DISPERSION TERM
 =  20.29    (WHEN MIN. R.F.=1)  AT K=   1, I=   1, J=  31
     1 CALLS TO GCG PACKAGE FOR TRANSPORT TIME STEP   3 IN FLOW TIME STEP 530 STRESS PERIOD   1
     6 TOTAL ITERATIONS
 
 SOLVING FOR HEAD 
 FLOW MODEL IS TRANSIENT
 FLOW MODEL CONTAINS CONSTANT-HEAD CELLS


 MAXIMUM STEPSIZE DURING WHICH ANY PARTICLE CANNOT MOVE MORE THAN ONE CELL
 =  5.264    (WHEN MIN. R.F.=1)  AT K=   5, I=   1, J=  74

 MAXIMUM STEPSIZE WHICH MEETS STABILITY CRITERION OF THE ADVECTION TERM
 (FOR PURE FINITE-DIFFERENCE OPTION, MIXELM=0) 
 =  3.597    (WHEN MIN. R.F.=1)  AT K=   2, I=   1, J=  79


 TOTAL NUMBER OF POINT SOURCES/SINKS PRESENT IN THE FLOW MODEL =    62

 MAXIMUM STEPSIZE WHICH MEETS STABILITY CRITERION OF THE SINK & SOURCE TERM
 =  1827.    (WHEN MIN. R.F.=1)  AT K=   2, I=   1, J= 120

 MAXIMUM STEPSIZE WHICH MEETS STABILITY CRITERION OF THE DISPERSION TERM
 =  20.29    (WHEN MIN. R.F.=1)  AT K=   1, I=   1, J=  31
     1 CALLS TO GCG PACKAGE FOR TRANSPORT TIME STEP   4 IN FLOW TIME STEP 530 STRESS PERIOD   1
     5 TOTAL ITERATIONS
  MAXIMUM CONCENTRATION CHANGES FOR EACH ITERATION:
  MAX. CHANGE LAYER,ROW,COL MAX. CHANGE LAYER,ROW,COL MAX. CHANGE LAYER,ROW,COL MAX. CHANGE LAYER,ROW,COL MAX. CHANGE LAYER,ROW,COL
 ------------------------------------------------------------------------------------------------------------------------------------
   0.1989E-01 (  2,  1, 38)  0.5255E-03 (  2,  1, 79)  0.2009E-04 (  2,  1, 76)  0.1226E-05 (  3,  1, 76)  0.3798E-07 (  4,  1, 76)


                                          ================================================
                                                         FROM TIME =   5300.0     TO    5310.0    

 
 SOLVING FOR HEAD 
 FLOW MODEL IS TRANSIENT
 FLOW MODEL CONTAINS CONSTANT-HEAD CELLS


 MAXIMUM STEPSIZE DURING WHICH ANY PARTICLE CANNOT MOVE MORE THAN ONE CELL
 =  5.352    (WHEN MIN. R.F.=1)  AT K=   5, I=   1, J=  74

 MAXIMUM STEPSIZE WHICH MEETS STABILITY CRITERION OF THE ADVECTION TERM
 (FOR PURE FINITE-DIFFERENCE OPTION, MIXELM=0) 
 =  3.561    (WHEN MIN. R.F.=1)  AT K=   2, I=   1, J=  79


 TOTAL NUMBER OF POINT SOURCES/SINKS PRESENT IN THE FLOW MODEL =    62

 MAXIMUM STEPSIZE WHICH MEETS STABILITY CRITERION OF THE SINK & SOURCE TERM
 =  1988.    (WHEN MIN. R.F.=1)  AT K=   2, I=   1, J= 120

 MAXIMUM STEPSIZE WHICH MEETS STABILITY CRITERION OF THE DISPERSION TERM
 =  20.29    (WHEN MIN. R.F.=1)  AT K=   1, I=   1, J=  31


     1 CALLS TO GCG PACKAGE FOR TRANSPORT TIME STEP   1 IN FLOW TIME STEP 531 STRESS PERIOD   1
     6 TOTAL ITERATIONS

 NO OUTPUT CONTROL FOR STRESS PERIOD    1   TIME STEP 531
 
 SOLVING FOR HEAD 
 FLOW MODEL IS TRANSIENT
 FLOW MODEL CONTAINS CONSTANT-HEAD CELLS


 MAXIMUM STEPSIZE DURING WHICH ANY PARTICLE CANNOT MOVE MORE THAN ONE CELL
 =  5.467    (WHEN MIN. R.F.=1)  AT K=   6, I=   1, J=  74

 MAXIMUM STEPSIZE WHICH MEETS STABILITY CRITERION OF THE ADVECTION TERM
 (FOR PURE FINITE-DIFFERENCE OPTION, MIXELM=0) 
 =  3.588    (WHEN MIN. R.F.=1)  AT K=   2, I=   1, J=  79


 TOTAL NUMBER OF POINT SOURCES/SINKS PRESENT IN THE FLOW MODEL =    62

 MAXIMUM STEPSIZE WHICH MEETS STABILITY CRITERION OF THE SINK & SOURCE TERM
 =  1555.    (WHEN MIN. R.F.=1)  AT K=   2, I=   1, J= 120

 MAXIMUM STEPSIZE WHICH MEETS STABILITY CRITERION OF THE DISPERSION TERM
 =  20.29    (WHEN MIN. R.F.=1)  AT K=   1, I=   1, J=  31
     1 CALLS TO GCG PACKAGE FOR TRANSPORT TIME STEP   2 IN FLOW TIME STEP 531 STRESS PERIOD   1
     6 TOTAL ITERATIONS
 
 SOLVING FOR HEAD 
 FLOW MODEL IS TRANSIENT
 FLOW MODEL CONTAINS CONSTANT-HEAD CELLS


 MAXIMUM STEPSIZE DURING WHICH ANY PARTICLE CANNOT MOVE MORE THAN ONE CELL
 =  5.544    (WHEN MIN. R.F.=1)  AT K=   4, I=   1, J=  47

 MAXIMUM STEPSIZE WHICH MEETS STABILITY CRITERION OF THE ADVECTION TERM
 (FOR PURE FINITE-DIFFERENCE OPTION, MIXELM=0) 
 =  3.756    (WHEN MIN. R.F.=1)  AT K=   2, I=   1, J=  79


 TOTAL NUMBER OF POINT SOURCES/SINKS PRESENT IN THE FLOW MODEL =    62

 MAXIMUM STEPSIZE WHICH MEETS STABILITY CRITERION OF THE SINK & SOURCE TERM
 =  1771.    (WHEN MIN. R.F.=1)  AT K=   2, I=   1, J= 120

 MAXIMUM STEPSIZE WHICH MEETS STABILITY CRITERION OF THE DISPERSION TERM
 =  20.29    (WHEN MIN. R.F.=1)  AT K=   1, I=   1, J=  31
     1 CALLS TO GCG PACKAGE FOR TRANSPORT TIME STEP   3 IN FLOW TIME STEP 531 STRESS PERIOD   1
     6 TOTAL ITERATIONS
 
 SOLVING FOR HEAD 
 FLOW MODEL IS TRANSIENT
 FLOW MODEL CONTAINS CONSTANT-HEAD CELLS


 MAXIMUM STEPSIZE DURING WHICH ANY PARTICLE CANNOT MOVE MORE THAN ONE CELL
 =  5.392    (WHEN MIN. R.F.=1)  AT K=   4, I=   1, J=  47

 MAXIMUM STEPSIZE WHICH MEETS STABILITY CRITERION OF THE ADVECTION TERM
 (FOR PURE FINITE-DIFFERENCE OPTION, MIXELM=0) 
 =  4.022    (WHEN MIN. R.F.=1)  AT K=   2, I=   1, J=  78


 TOTAL NUMBER OF POINT SOURCES/SINKS PRESENT IN THE FLOW MODEL =    62

 MAXIMUM STEPSIZE WHICH MEETS STABILITY CRITERION OF THE SINK & SOURCE TERM
 =  1614.    (WHEN MIN. R.F.=1)  AT K=   2, I=   1, J= 120

 MAXIMUM STEPSIZE WHICH MEETS STABILITY CRITERION OF THE DISPERSION TERM
 =  20.29    (WHEN MIN. R.F.=1)  AT K=   1, I=   1, J=  31
     1 CALLS TO GCG PACKAGE FOR TRANSPORT TIME STEP   4 IN FLOW TIME STEP 531 STRESS PERIOD   1
     5 TOTAL ITERATIONS
  MAXIMUM CONCENTRATION CHANGES FOR EACH ITERATION:
  MAX. CHANGE LAYER,ROW,COL MAX. CHANGE LAYER,ROW,COL MAX. CHANGE LAYER,ROW,COL MAX. CHANGE LAYER,ROW,COL MAX. CHANGE LAYER,ROW,COL
 ------------------------------------------------------------------------------------------------------------------------------------
   0.2309E-01 (  2,  1, 80)  0.7700E-03 (  2,  1, 78)  0.2803E-04 (  3,  1, 78)  0.1157E-05 (  3,  1, 76)  0.3711E-07 (  4,  1, 79)


                                          ================================================
                                                         FROM TIME =   5310.0     TO    5320.0    

 
 SOLVING FOR HEAD 
 FLOW MODEL IS TRANSIENT
 FLOW MODEL CONTAINS CONSTANT-HEAD CELLS


 MAXIMUM STEPSIZE DURING WHICH ANY PARTICLE CANNOT MOVE MORE THAN ONE CELL
 =  5.346    (WHEN MIN. R.F.=1)  AT K=   4, I=   1, J=  47

 MAXIMUM STEPSIZE WHICH MEETS STABILITY CRITERION OF THE ADVECTION TERM
 (FOR PURE FINITE-DIFFERENCE OPTION, MIXELM=0) 
 =  3.826    (WHEN MIN. R.F.=1)  AT K=   2, I=   1, J=  78


 TOTAL NUMBER OF POINT SOURCES/SINKS PRESENT IN THE FLOW MODEL =    62

 MAXIMUM STEPSIZE WHICH MEETS STABILITY CRITERION OF THE SINK & SOURCE TERM
 =  1895.    (WHEN MIN. R.F.=1)  AT K=   2, I=   1, J= 120

 MAXIMUM STEPSIZE WHICH MEETS STABILITY CRITERION OF THE DISPERSION TERM
 =  20.29    (WHEN MIN. R.F.=1)  AT K=   1, I=   1, J=  31


     1 CALLS TO GCG PACKAGE FOR TRANSPORT TIME STEP   1 IN FLOW TIME STEP 532 STRESS PERIOD   1
     6 TOTAL ITERATIONS

 NO OUTPUT CONTROL FOR STRESS PERIOD    1   TIME STEP 532
 
 SOLVING FOR HEAD 
 FLOW MODEL IS TRANSIENT
 FLOW MODEL CONTAINS CONSTANT-HEAD CELLS


 MAXIMUM STEPSIZE DURING WHICH ANY PARTICLE CANNOT MOVE MORE THAN ONE CELL
 =  5.359    (WHEN MIN. R.F.=1)  AT K=   4, I=   1, J=  47

 MAXIMUM STEPSIZE WHICH MEETS STABILITY CRITERION OF THE ADVECTION TERM
 (FOR PURE FINITE-DIFFERENCE OPTION, MIXELM=0) 
 =  3.656    (WHEN MIN. R.F.=1)  AT K=   2, I=   1, J=  78


 TOTAL NUMBER OF POINT SOURCES/SINKS PRESENT IN THE FLOW MODEL =    62

 MAXIMUM STEPSIZE WHICH MEETS STABILITY CRITERION OF THE SINK & SOURCE TERM
 =  1481.    (WHEN MIN. R.F.=1)  AT K=   2, I=   1, J= 120

 MAXIMUM STEPSIZE WHICH MEETS STABILITY CRITERION OF THE DISPERSION TERM
 =  20.29    (WHEN MIN. R.F.=1)  AT K=   1, I=   1, J=  31
     1 CALLS TO GCG PACKAGE FOR TRANSPORT TIME STEP   2 IN FLOW TIME STEP 532 STRESS PERIOD   1
     6 TOTAL ITERATIONS
 
 SOLVING FOR HEAD 
 FLOW MODEL IS TRANSIENT
 FLOW MODEL CONTAINS CONSTANT-HEAD CELLS


 MAXIMUM STEPSIZE DURING WHICH ANY PARTICLE CANNOT MOVE MORE THAN ONE CELL
 =  5.455    (WHEN MIN. R.F.=1)  AT K=   5, I=   1, J=  47

 MAXIMUM STEPSIZE WHICH MEETS STABILITY CRITERION OF THE ADVECTION TERM
 (FOR PURE FINITE-DIFFERENCE OPTION, MIXELM=0) 
 =  3.646    (WHEN MIN. R.F.=1)  AT K=   2, I=   1, J=  78


 TOTAL NUMBER OF POINT SOURCES/SINKS PRESENT IN THE FLOW MODEL =    62

 MAXIMUM STEPSIZE WHICH MEETS STABILITY CRITERION OF THE SINK & SOURCE TERM
 =  1658.    (WHEN MIN. R.F.=1)  AT K=   2, I=   1, J= 120

 MAXIMUM STEPSIZE WHICH MEETS STABILITY CRITERION OF THE DISPERSION TERM
 =  20.29    (WHEN MIN. R.F.=1)  AT K=   1, I=   1, J=  31
     1 CALLS TO GCG PACKAGE FOR TRANSPORT TIME STEP   3 IN FLOW TIME STEP 532 STRESS PERIOD   1
     6 TOTAL ITERATIONS
 
 SOLVING FOR HEAD 
 FLOW MODEL IS TRANSIENT
 FLOW MODEL CONTAINS CONSTANT-HEAD CELLS


 MAXIMUM STEPSIZE DURING WHICH ANY PARTICLE CANNOT MOVE MORE THAN ONE CELL
 =  5.499    (WHEN MIN. R.F.=1)  AT K=   5, I=   1, J=  47

 MAXIMUM STEPSIZE WHICH MEETS STABILITY CRITERION OF THE ADVECTION TERM
 (FOR PURE FINITE-DIFFERENCE OPTION, MIXELM=0) 
 =  3.753    (WHEN MIN. R.F.=1)  AT K=   2, I=   1, J=  78


 TOTAL NUMBER OF POINT SOURCES/SINKS PRESENT IN THE FLOW MODEL =    62

 MAXIMUM STEPSIZE WHICH MEETS STABILITY CRITERION OF THE SINK & SOURCE TERM
 =  1864.    (WHEN MIN. R.F.=1)  AT K=   2, I=   1, J= 120

 MAXIMUM STEPSIZE WHICH MEETS STABILITY CRITERION OF THE DISPERSION TERM
 =  20.29    (WHEN MIN. R.F.=1)  AT K=   1, I=   1, J=  31
     1 CALLS TO GCG PACKAGE FOR TRANSPORT TIME STEP   4 IN FLOW TIME STEP 532 STRESS PERIOD   1
     5 TOTAL ITERATIONS
  MAXIMUM CONCENTRATION CHANGES FOR EACH ITERATION:
  MAX. CHANGE LAYER,ROW,COL MAX. CHANGE LAYER,ROW,COL MAX. CHANGE LAYER,ROW,COL MAX. CHANGE LAYER,ROW,COL MAX. CHANGE LAYER,ROW,COL
 ------------------------------------------------------------------------------------------------------------------------------------
   0.1729E-01 (  2,  1, 79)  0.3316E-03 (  2,  1, 79)  0.1100E-04 (  3,  1, 42)  0.3260E-06 (  3,  1, 80)  0.8323E-08 (  4,  1, 79)


                                          ================================================
                                                         FROM TIME =   5320.0     TO    5330.0    

 
 SOLVING FOR HEAD 
 FLOW MODEL IS TRANSIENT
 FLOW MODEL CONTAINS CONSTANT-HEAD CELLS


 MAXIMUM STEPSIZE DURING WHICH ANY PARTICLE CANNOT MOVE MORE THAN ONE CELL
 =  5.553    (WHEN MIN. R.F.=1)  AT K=   5, I=   1, J=  47

 MAXIMUM STEPSIZE WHICH MEETS STABILITY CRITERION OF THE ADVECTION TERM
 (FOR PURE FINITE-DIFFERENCE OPTION, MIXELM=0) 
 =  3.871    (WHEN MIN. R.F.=1)  AT K=   2, I=   1, J=  78


 TOTAL NUMBER OF POINT SOURCES/SINKS PRESENT IN THE FLOW MODEL =    62

 MAXIMUM STEPSIZE WHICH MEETS STABILITY CRITERION OF THE SINK & SOURCE TERM
 =  4132.    (WHEN MIN. R.F.=1)  AT K=   2, I=   1, J= 120

 MAXIMUM STEPSIZE WHICH MEETS STABILITY CRITERION OF THE DISPERSION TERM
 =  20.29    (WHEN MIN. R.F.=1)  AT K=   1, I=   1, J=  31


     1 CALLS TO GCG PACKAGE FOR TRANSPORT TIME STEP   1 IN FLOW TIME STEP 533 STRESS PERIOD   1
     6 TOTAL ITERATIONS

 NO OUTPUT CONTROL FOR STRESS PERIOD    1   TIME STEP 533
 
 SOLVING FOR HEAD 
 FLOW MODEL IS TRANSIENT
 FLOW MODEL CONTAINS CONSTANT-HEAD CELLS


 MAXIMUM STEPSIZE DURING WHICH ANY PARTICLE CANNOT MOVE MORE THAN ONE CELL
 =  5.694    (WHEN MIN. R.F.=1)  AT K=   5, I=   1, J=  47

 MAXIMUM STEPSIZE WHICH MEETS STABILITY CRITERION OF THE ADVECTION TERM
 (FOR PURE FINITE-DIFFERENCE OPTION, MIXELM=0) 
 =  3.997    (WHEN MIN. R.F.=1)  AT K=   2, I=   1, J=  42


 TOTAL NUMBER OF POINT SOURCES/SINKS PRESENT IN THE FLOW MODEL =    62

 MAXIMUM STEPSIZE WHICH MEETS STABILITY CRITERION OF THE SINK & SOURCE TERM
 =  2505.    (WHEN MIN. R.F.=1)  AT K=   2, I=   1, J= 120

 MAXIMUM STEPSIZE WHICH MEETS STABILITY CRITERION OF THE DISPERSION TERM
 =  20.29    (WHEN MIN. R.F.=1)  AT K=   1, I=   1, J=  31
     1 CALLS TO GCG PACKAGE FOR TRANSPORT TIME STEP   2 IN FLOW TIME STEP 533 STRESS PERIOD   1
     6 TOTAL ITERATIONS
 
 SOLVING FOR HEAD 
 FLOW MODEL IS TRANSIENT
 FLOW MODEL CONTAINS CONSTANT-HEAD CELLS


 MAXIMUM STEPSIZE DURING WHICH ANY PARTICLE CANNOT MOVE MORE THAN ONE CELL
 =  5.801    (WHEN MIN. R.F.=1)  AT K=   6, I=   1, J=  47

 MAXIMUM STEPSIZE WHICH MEETS STABILITY CRITERION OF THE ADVECTION TERM
 (FOR PURE FINITE-DIFFERENCE OPTION, MIXELM=0) 
 =  3.777    (WHEN MIN. R.F.=1)  AT K=   2, I=   1, J=  42


 TOTAL NUMBER OF POINT SOURCES/SINKS PRESENT IN THE FLOW MODEL =    62

 MAXIMUM STEPSIZE WHICH MEETS STABILITY CRITERION OF THE SINK & SOURCE TERM
 =  2494.    (WHEN MIN. R.F.=1)  AT K=   2, I=   1, J= 120

 MAXIMUM STEPSIZE WHICH MEETS STABILITY CRITERION OF THE DISPERSION TERM
 =  20.29    (WHEN MIN. R.F.=1)  AT K=   1, I=   1, J=  31
     1 CALLS TO GCG PACKAGE FOR TRANSPORT TIME STEP   3 IN FLOW TIME STEP 533 STRESS PERIOD   1
     6 TOTAL ITERATIONS
 
 SOLVING FOR HEAD 
 FLOW MODEL IS TRANSIENT
 FLOW MODEL CONTAINS CONSTANT-HEAD CELLS


 MAXIMUM STEPSIZE DURING WHICH ANY PARTICLE CANNOT MOVE MORE THAN ONE CELL
 =  5.930    (WHEN MIN. R.F.=1)  AT K=   6, I=   1, J=  47

 MAXIMUM STEPSIZE WHICH MEETS STABILITY CRITERION OF THE ADVECTION TERM
 (FOR PURE FINITE-DIFFERENCE OPTION, MIXELM=0) 
 =  3.722    (WHEN MIN. R.F.=1)  AT K=   2, I=   1, J=  42


 TOTAL NUMBER OF POINT SOURCES/SINKS PRESENT IN THE FLOW MODEL =    62

 MAXIMUM STEPSIZE WHICH MEETS STABILITY CRITERION OF THE SINK & SOURCE TERM
 =  2266.    (WHEN MIN. R.F.=1)  AT K=   2, I=   1, J= 120

 MAXIMUM STEPSIZE WHICH MEETS STABILITY CRITERION OF THE DISPERSION TERM
 =  20.29    (WHEN MIN. R.F.=1)  AT K=   1, I=   1, J=  31
     1 CALLS TO GCG PACKAGE FOR TRANSPORT TIME STEP   4 IN FLOW TIME STEP 533 STRESS PERIOD   1
     5 TOTAL ITERATIONS
  MAXIMUM CONCENTRATION CHANGES FOR EACH ITERATION:
  MAX. CHANGE LAYER,ROW,COL MAX. CHANGE LAYER,ROW,COL MAX. CHANGE LAYER,ROW,COL MAX. CHANGE LAYER,ROW,COL MAX. CHANGE LAYER,ROW,COL
 ------------------------------------------------------------------------------------------------------------------------------------
   0.1362E-01 (  2,  1, 46)  0.3225E-03 (  2,  1, 77)  0.7965E-05 (  3,  1, 43)  0.3700E-06 (  3,  1, 45)  0.8655E-08 (  4,  1, 45)


                                          ================================================
                                                         FROM TIME =   5330.0     TO    5340.0    

 
 SOLVING FOR HEAD 
 FLOW MODEL IS TRANSIENT
 FLOW MODEL CONTAINS CONSTANT-HEAD CELLS


 MAXIMUM STEPSIZE DURING WHICH ANY PARTICLE CANNOT MOVE MORE THAN ONE CELL
 =  6.001    (WHEN MIN. R.F.=1)  AT K=   6, I=   1, J=  47

 MAXIMUM STEPSIZE WHICH MEETS STABILITY CRITERION OF THE ADVECTION TERM
 (FOR PURE FINITE-DIFFERENCE OPTION, MIXELM=0) 
 =  3.737    (WHEN MIN. R.F.=1)  AT K=   2, I=   1, J=  42


 TOTAL NUMBER OF POINT SOURCES/SINKS PRESENT IN THE FLOW MODEL =    62

 MAXIMUM STEPSIZE WHICH MEETS STABILITY CRITERION OF THE SINK & SOURCE TERM
 = 0.1608E+05(WHEN MIN. R.F.=1)  AT K=   2, I=   1, J= 120

 MAXIMUM STEPSIZE WHICH MEETS STABILITY CRITERION OF THE DISPERSION TERM
 =  20.29    (WHEN MIN. R.F.=1)  AT K=   1, I=   1, J=  31


     1 CALLS TO GCG PACKAGE FOR TRANSPORT TIME STEP   1 IN FLOW TIME STEP 534 STRESS PERIOD   1
     6 TOTAL ITERATIONS

 NO OUTPUT CONTROL FOR STRESS PERIOD    1   TIME STEP 534
 
 SOLVING FOR HEAD 
 FLOW MODEL IS TRANSIENT
 FLOW MODEL CONTAINS CONSTANT-HEAD CELLS


 MAXIMUM STEPSIZE DURING WHICH ANY PARTICLE CANNOT MOVE MORE THAN ONE CELL
 =  6.093    (WHEN MIN. R.F.=1)  AT K=   7, I=   1, J=  47

 MAXIMUM STEPSIZE WHICH MEETS STABILITY CRITERION OF THE ADVECTION TERM
 (FOR PURE FINITE-DIFFERENCE OPTION, MIXELM=0) 
 =  3.851    (WHEN MIN. R.F.=1)  AT K=   2, I=   1, J=  77


 TOTAL NUMBER OF POINT SOURCES/SINKS PRESENT IN THE FLOW MODEL =    62

 MAXIMUM STEPSIZE WHICH MEETS STABILITY CRITERION OF THE SINK & SOURCE TERM
 =  5372.    (WHEN MIN. R.F.=1)  AT K=   2, I=   1, J= 120

 MAXIMUM STEPSIZE WHICH MEETS STABILITY CRITERION OF THE DISPERSION TERM
 =  20.29    (WHEN MIN. R.F.=1)  AT K=   1, I=   1, J=  31
     1 CALLS TO GCG PACKAGE FOR TRANSPORT TIME STEP   2 IN FLOW TIME STEP 534 STRESS PERIOD   1
     6 TOTAL ITERATIONS
 
 SOLVING FOR HEAD 
 FLOW MODEL IS TRANSIENT
 FLOW MODEL CONTAINS CONSTANT-HEAD CELLS


 MAXIMUM STEPSIZE DURING WHICH ANY PARTICLE CANNOT MOVE MORE THAN ONE CELL
 =  6.115    (WHEN MIN. R.F.=1)  AT K=   4, I=   1, J=  48

 MAXIMUM STEPSIZE WHICH MEETS STABILITY CRITERION OF THE ADVECTION TERM
 (FOR PURE FINITE-DIFFERENCE OPTION, MIXELM=0) 
 =  3.994    (WHEN MIN. R.F.=1)  AT K=   2, I=   1, J=  77


 TOTAL NUMBER OF POINT SOURCES/SINKS PRESENT IN THE FLOW MODEL =    62

 MAXIMUM STEPSIZE WHICH MEETS STABILITY CRITERION OF THE SINK & SOURCE TERM
 =  5449.    (WHEN MIN. R.F.=1)  AT K=   2, I=   1, J= 120

 MAXIMUM STEPSIZE WHICH MEETS STABILITY CRITERION OF THE DISPERSION TERM
 =  20.29    (WHEN MIN. R.F.=1)  AT K=   1, I=   1, J=  31
     1 CALLS TO GCG PACKAGE FOR TRANSPORT TIME STEP   3 IN FLOW TIME STEP 534 STRESS PERIOD   1
     6 TOTAL ITERATIONS
 
 SOLVING FOR HEAD 
 FLOW MODEL IS TRANSIENT
 FLOW MODEL CONTAINS CONSTANT-HEAD CELLS


 MAXIMUM STEPSIZE DURING WHICH ANY PARTICLE CANNOT MOVE MORE THAN ONE CELL
 =  6.119    (WHEN MIN. R.F.=1)  AT K=   4, I=   1, J=  48

 MAXIMUM STEPSIZE WHICH MEETS STABILITY CRITERION OF THE ADVECTION TERM
 (FOR PURE FINITE-DIFFERENCE OPTION, MIXELM=0) 
 =  3.862    (WHEN MIN. R.F.=1)  AT K=   2, I=   1, J=  43


 TOTAL NUMBER OF POINT SOURCES/SINKS PRESENT IN THE FLOW MODEL =    62

 MAXIMUM STEPSIZE WHICH MEETS STABILITY CRITERION OF THE SINK & SOURCE TERM
 =  4300.    (WHEN MIN. R.F.=1)  AT K=   2, I=   1, J= 120

 MAXIMUM STEPSIZE WHICH MEETS STABILITY CRITERION OF THE DISPERSION TERM
 =  20.29    (WHEN MIN. R.F.=1)  AT K=   1, I=   1, J=  31
     1 CALLS TO GCG PACKAGE FOR TRANSPORT TIME STEP   4 IN FLOW TIME STEP 534 STRESS PERIOD   1
     5 TOTAL ITERATIONS
  MAXIMUM CONCENTRATION CHANGES FOR EACH ITERATION:
  MAX. CHANGE LAYER,ROW,COL MAX. CHANGE LAYER,ROW,COL MAX. CHANGE LAYER,ROW,COL MAX. CHANGE LAYER,ROW,COL MAX. CHANGE LAYER,ROW,COL
 ------------------------------------------------------------------------------------------------------------------------------------
   0.1804E-01 (  2,  1, 78)  0.4371E-03 (  2,  1, 76)  0.1096E-04 (  2,  1, 79)  0.4472E-06 (  3,  1, 79)  0.1446E-07 (  4,  1, 75)


                                          ================================================
                                                         FROM TIME =   5340.0     TO    5350.0    

 
 SOLVING FOR HEAD 
 FLOW MODEL IS TRANSIENT
 FLOW MODEL CONTAINS CONSTANT-HEAD CELLS


 MAXIMUM STEPSIZE DURING WHICH ANY PARTICLE CANNOT MOVE MORE THAN ONE CELL
 =  6.131    (WHEN MIN. R.F.=1)  AT K=   4, I=   1, J=  48

 MAXIMUM STEPSIZE WHICH MEETS STABILITY CRITERION OF THE ADVECTION TERM
 (FOR PURE FINITE-DIFFERENCE OPTION, MIXELM=0) 
 =  3.798    (WHEN MIN. R.F.=1)  AT K=   2, I=   1, J=  43


 TOTAL NUMBER OF POINT SOURCES/SINKS PRESENT IN THE FLOW MODEL =    62

 MAXIMUM STEPSIZE WHICH MEETS STABILITY CRITERION OF THE SINK & SOURCE TERM
 = 0.2541E+05(WHEN MIN. R.F.=1)  AT K=   2, I=   1, J= 120

 MAXIMUM STEPSIZE WHICH MEETS STABILITY CRITERION OF THE DISPERSION TERM
 =  20.29    (WHEN MIN. R.F.=1)  AT K=   1, I=   1, J=  31


     1 CALLS TO GCG PACKAGE FOR TRANSPORT TIME STEP   1 IN FLOW TIME STEP 535 STRESS PERIOD   1
     6 TOTAL ITERATIONS

 NO OUTPUT CONTROL FOR STRESS PERIOD    1   TIME STEP 535
 
 SOLVING FOR HEAD 
 FLOW MODEL IS TRANSIENT
 FLOW MODEL CONTAINS CONSTANT-HEAD CELLS


 MAXIMUM STEPSIZE DURING WHICH ANY PARTICLE CANNOT MOVE MORE THAN ONE CELL
 =  6.168    (WHEN MIN. R.F.=1)  AT K=   4, I=   1, J=  48

 MAXIMUM STEPSIZE WHICH MEETS STABILITY CRITERION OF THE ADVECTION TERM
 (FOR PURE FINITE-DIFFERENCE OPTION, MIXELM=0) 
 =  3.770    (WHEN MIN. R.F.=1)  AT K=   2, I=   1, J=  43


 TOTAL NUMBER OF POINT SOURCES/SINKS PRESENT IN THE FLOW MODEL =    62

 MAXIMUM STEPSIZE WHICH MEETS STABILITY CRITERION OF THE SINK & SOURCE TERM
 =  8355.    (WHEN MIN. R.F.=1)  AT K=   2, I=   1, J= 120

 MAXIMUM STEPSIZE WHICH MEETS STABILITY CRITERION OF THE DISPERSION TERM
 =  20.29    (WHEN MIN. R.F.=1)  AT K=   1, I=   1, J=  31
     1 CALLS TO GCG PACKAGE FOR TRANSPORT TIME STEP   2 IN FLOW TIME STEP 535 STRESS PERIOD   1
     6 TOTAL ITERATIONS
 
 SOLVING FOR HEAD 
 FLOW MODEL IS TRANSIENT
 FLOW MODEL CONTAINS CONSTANT-HEAD CELLS


 MAXIMUM STEPSIZE DURING WHICH ANY PARTICLE CANNOT MOVE MORE THAN ONE CELL
 =  6.231    (WHEN MIN. R.F.=1)  AT K=   4, I=   1, J=  48

 MAXIMUM STEPSIZE WHICH MEETS STABILITY CRITERION OF THE ADVECTION TERM
 (FOR PURE FINITE-DIFFERENCE OPTION, MIXELM=0) 
 =  3.849    (WHEN MIN. R.F.=1)  AT K=   2, I=   1, J=  43


 TOTAL NUMBER OF POINT SOURCES/SINKS PRESENT IN THE FLOW MODEL =    62

 MAXIMUM STEPSIZE WHICH MEETS STABILITY CRITERION OF THE SINK & SOURCE TERM
 = 0.6302E+05(WHEN MIN. R.F.=1)  AT K=   2, I=   1, J= 120

 MAXIMUM STEPSIZE WHICH MEETS STABILITY CRITERION OF THE DISPERSION TERM
 =  20.29    (WHEN MIN. R.F.=1)  AT K=   1, I=   1, J=  31
     1 CALLS TO GCG PACKAGE FOR TRANSPORT TIME STEP   3 IN FLOW TIME STEP 535 STRESS PERIOD   1
     6 TOTAL ITERATIONS
 
 SOLVING FOR HEAD 
 FLOW MODEL IS TRANSIENT
 FLOW MODEL CONTAINS CONSTANT-HEAD CELLS


 MAXIMUM STEPSIZE DURING WHICH ANY PARTICLE CANNOT MOVE MORE THAN ONE CELL
 =  6.279    (WHEN MIN. R.F.=1)  AT K=   5, I=   1, J=  48

 MAXIMUM STEPSIZE WHICH MEETS STABILITY CRITERION OF THE ADVECTION TERM
 (FOR PURE FINITE-DIFFERENCE OPTION, MIXELM=0) 
 =  4.071    (WHEN MIN. R.F.=1)  AT K=   2, I=   1, J=  43


 TOTAL NUMBER OF POINT SOURCES/SINKS PRESENT IN THE FLOW MODEL =    62

 MAXIMUM STEPSIZE WHICH MEETS STABILITY CRITERION OF THE SINK & SOURCE TERM
 = 0.2699E+05(WHEN MIN. R.F.=1)  AT K=   2, I=   1, J= 120

 MAXIMUM STEPSIZE WHICH MEETS STABILITY CRITERION OF THE DISPERSION TERM
 =  20.29    (WHEN MIN. R.F.=1)  AT K=   1, I=   1, J=  31
     1 CALLS TO GCG PACKAGE FOR TRANSPORT TIME STEP   4 IN FLOW TIME STEP 535 STRESS PERIOD   1
     5 TOTAL ITERATIONS
  MAXIMUM CONCENTRATION CHANGES FOR EACH ITERATION:
  MAX. CHANGE LAYER,ROW,COL MAX. CHANGE LAYER,ROW,COL MAX. CHANGE LAYER,ROW,COL MAX. CHANGE LAYER,ROW,COL MAX. CHANGE LAYER,ROW,COL
 ------------------------------------------------------------------------------------------------------------------------------------
   0.1599E-01 (  2,  1, 42)  0.3543E-03 (  2,  1, 44)  0.1152E-04 (  2,  1, 78)  0.3869E-06 (  3,  1, 78)  0.9797E-08 (  3,  1, 33)


                                          ================================================
                                                         FROM TIME =   5350.0     TO    5360.0    

 
 SOLVING FOR HEAD 
 FLOW MODEL IS TRANSIENT
 FLOW MODEL CONTAINS CONSTANT-HEAD CELLS


 MAXIMUM STEPSIZE DURING WHICH ANY PARTICLE CANNOT MOVE MORE THAN ONE CELL
 =  6.317    (WHEN MIN. R.F.=1)  AT K=   5, I=   1, J=  48

 MAXIMUM STEPSIZE WHICH MEETS STABILITY CRITERION OF THE ADVECTION TERM
 (FOR PURE FINITE-DIFFERENCE OPTION, MIXELM=0) 
 =  4.253    (WHEN MIN. R.F.=1)  AT K=   2, I=   1, J=  43


 TOTAL NUMBER OF POINT SOURCES/SINKS PRESENT IN THE FLOW MODEL =    62

 MAXIMUM STEPSIZE WHICH MEETS STABILITY CRITERION OF THE SINK & SOURCE TERM
 = 0.1000E+31(WHEN MIN. R.F.=1)  AT K=   0, I=   0, J=   0

 MAXIMUM STEPSIZE WHICH MEETS STABILITY CRITERION OF THE DISPERSION TERM
 =  20.29    (WHEN MIN. R.F.=1)  AT K=   1, I=   1, J=  31


     1 CALLS TO GCG PACKAGE FOR TRANSPORT TIME STEP   1 IN FLOW TIME STEP 536 STRESS PERIOD   1
     6 TOTAL ITERATIONS

 NO OUTPUT CONTROL FOR STRESS PERIOD    1   TIME STEP 536
 
 SOLVING FOR HEAD 
 FLOW MODEL IS TRANSIENT
 FLOW MODEL CONTAINS CONSTANT-HEAD CELLS


 MAXIMUM STEPSIZE DURING WHICH ANY PARTICLE CANNOT MOVE MORE THAN ONE CELL
 =  6.409    (WHEN MIN. R.F.=1)  AT K=   5, I=   1, J=  48

 MAXIMUM STEPSIZE WHICH MEETS STABILITY CRITERION OF THE ADVECTION TERM
 (FOR PURE FINITE-DIFFERENCE OPTION, MIXELM=0) 
 =  4.073    (WHEN MIN. R.F.=1)  AT K=   2, I=   1, J=  44


 TOTAL NUMBER OF POINT SOURCES/SINKS PRESENT IN THE FLOW MODEL =    62

 MAXIMUM STEPSIZE WHICH MEETS STABILITY CRITERION OF THE SINK & SOURCE TERM
 = 0.2659E+05(WHEN MIN. R.F.=1)  AT K=   2, I=   1, J= 120

 MAXIMUM STEPSIZE WHICH MEETS STABILITY CRITERION OF THE DISPERSION TERM
 =  20.29    (WHEN MIN. R.F.=1)  AT K=   1, I=   1, J=  31
     1 CALLS TO GCG PACKAGE FOR TRANSPORT TIME STEP   2 IN FLOW TIME STEP 536 STRESS PERIOD   1
     6 TOTAL ITERATIONS
 
 SOLVING FOR HEAD 
 FLOW MODEL IS TRANSIENT
 FLOW MODEL CONTAINS CONSTANT-HEAD CELLS


 MAXIMUM STEPSIZE DURING WHICH ANY PARTICLE CANNOT MOVE MORE THAN ONE CELL
 =  6.528    (WHEN MIN. R.F.=1)  AT K=   5, I=   1, J=  48

 MAXIMUM STEPSIZE WHICH MEETS STABILITY CRITERION OF THE ADVECTION TERM
 (FOR PURE FINITE-DIFFERENCE OPTION, MIXELM=0) 
 =  3.929    (WHEN MIN. R.F.=1)  AT K=   2, I=   1, J=  44


 TOTAL NUMBER OF POINT SOURCES/SINKS PRESENT IN THE FLOW MODEL =    62

 MAXIMUM STEPSIZE WHICH MEETS STABILITY CRITERION OF THE SINK & SOURCE TERM
 = 0.2811E+05(WHEN MIN. R.F.=1)  AT K=   2, I=   1, J= 120

 MAXIMUM STEPSIZE WHICH MEETS STABILITY CRITERION OF THE DISPERSION TERM
 =  20.29    (WHEN MIN. R.F.=1)  AT K=   1, I=   1, J=  31
     1 CALLS TO GCG PACKAGE FOR TRANSPORT TIME STEP   3 IN FLOW TIME STEP 536 STRESS PERIOD   1
     6 TOTAL ITERATIONS
 
 SOLVING FOR HEAD 
 FLOW MODEL IS TRANSIENT
 FLOW MODEL CONTAINS CONSTANT-HEAD CELLS


 MAXIMUM STEPSIZE DURING WHICH ANY PARTICLE CANNOT MOVE MORE THAN ONE CELL
 =  6.531    (WHEN MIN. R.F.=1)  AT K=  28, I=   1, J=  52

 MAXIMUM STEPSIZE WHICH MEETS STABILITY CRITERION OF THE ADVECTION TERM
 (FOR PURE FINITE-DIFFERENCE OPTION, MIXELM=0) 
 =  3.949    (WHEN MIN. R.F.=1)  AT K=   2, I=   1, J=  44


 TOTAL NUMBER OF POINT SOURCES/SINKS PRESENT IN THE FLOW MODEL =    62

 MAXIMUM STEPSIZE WHICH MEETS STABILITY CRITERION OF THE SINK & SOURCE TERM
 =  8970.    (WHEN MIN. R.F.=1)  AT K=   2, I=   1, J= 120

 MAXIMUM STEPSIZE WHICH MEETS STABILITY CRITERION OF THE DISPERSION TERM
 =  20.29    (WHEN MIN. R.F.=1)  AT K=   1, I=   1, J=  31
     1 CALLS TO GCG PACKAGE FOR TRANSPORT TIME STEP   4 IN FLOW TIME STEP 536 STRESS PERIOD   1
     4 TOTAL ITERATIONS
  MAXIMUM CONCENTRATION CHANGES FOR EACH ITERATION:
  MAX. CHANGE LAYER,ROW,COL MAX. CHANGE LAYER,ROW,COL MAX. CHANGE LAYER,ROW,COL MAX. CHANGE LAYER,ROW,COL MAX. CHANGE LAYER,ROW,COL
 ------------------------------------------------------------------------------------------------------------------------------------
   0.7301E-02 (  2,  1, 31)  0.9354E-04 (  2,  1, 46)  0.1354E-05 (  3,  1, 46)  0.2007E-07 (  3,  1, 84)


                                          ================================================
                                                         FROM TIME =   5360.0     TO    5370.0    

 
 SOLVING FOR HEAD 
 FLOW MODEL IS TRANSIENT
 FLOW MODEL CONTAINS CONSTANT-HEAD CELLS


 MAXIMUM STEPSIZE DURING WHICH ANY PARTICLE CANNOT MOVE MORE THAN ONE CELL
 =  6.535    (WHEN MIN. R.F.=1)  AT K=  28, I=   1, J=  52

 MAXIMUM STEPSIZE WHICH MEETS STABILITY CRITERION OF THE ADVECTION TERM
 (FOR PURE FINITE-DIFFERENCE OPTION, MIXELM=0) 
 =  3.969    (WHEN MIN. R.F.=1)  AT K=   2, I=   1, J=  44


 TOTAL NUMBER OF POINT SOURCES/SINKS PRESENT IN THE FLOW MODEL =    62

 MAXIMUM STEPSIZE WHICH MEETS STABILITY CRITERION OF THE SINK & SOURCE TERM
 = 0.1000E+31(WHEN MIN. R.F.=1)  AT K=   0, I=   0, J=   0

 MAXIMUM STEPSIZE WHICH MEETS STABILITY CRITERION OF THE DISPERSION TERM
 =  20.29    (WHEN MIN. R.F.=1)  AT K=   1, I=   1, J=  31


     1 CALLS TO GCG PACKAGE FOR TRANSPORT TIME STEP   1 IN FLOW TIME STEP 537 STRESS PERIOD   1
     6 TOTAL ITERATIONS

 NO OUTPUT CONTROL FOR STRESS PERIOD    1   TIME STEP 537
 
 SOLVING FOR HEAD 
 FLOW MODEL IS TRANSIENT
 FLOW MODEL CONTAINS CONSTANT-HEAD CELLS


 MAXIMUM STEPSIZE DURING WHICH ANY PARTICLE CANNOT MOVE MORE THAN ONE CELL
 =  6.202    (WHEN MIN. R.F.=1)  AT K=   4, I=   1, J=  74

 MAXIMUM STEPSIZE WHICH MEETS STABILITY CRITERION OF THE ADVECTION TERM
 (FOR PURE FINITE-DIFFERENCE OPTION, MIXELM=0) 
 =  4.116    (WHEN MIN. R.F.=1)  AT K=   2, I=   1, J=  44


 TOTAL NUMBER OF POINT SOURCES/SINKS PRESENT IN THE FLOW MODEL =    62

 MAXIMUM STEPSIZE WHICH MEETS STABILITY CRITERION OF THE SINK & SOURCE TERM
 = 0.1000E+31(WHEN MIN. R.F.=1)  AT K=   0, I=   0, J=   0

 MAXIMUM STEPSIZE WHICH MEETS STABILITY CRITERION OF THE DISPERSION TERM
 =  20.29    (WHEN MIN. R.F.=1)  AT K=   1, I=   1, J=  31
     1 CALLS TO GCG PACKAGE FOR TRANSPORT TIME STEP   2 IN FLOW TIME STEP 537 STRESS PERIOD   1
     6 TOTAL ITERATIONS
 
 SOLVING FOR HEAD 
 FLOW MODEL IS TRANSIENT
 FLOW MODEL CONTAINS CONSTANT-HEAD CELLS


 MAXIMUM STEPSIZE DURING WHICH ANY PARTICLE CANNOT MOVE MORE THAN ONE CELL
 =  5.814    (WHEN MIN. R.F.=1)  AT K=   4, I=   1, J=  74

 MAXIMUM STEPSIZE WHICH MEETS STABILITY CRITERION OF THE ADVECTION TERM
 (FOR PURE FINITE-DIFFERENCE OPTION, MIXELM=0) 
 =  4.367    (WHEN MIN. R.F.=1)  AT K=   2, I=   1, J=  75


 TOTAL NUMBER OF POINT SOURCES/SINKS PRESENT IN THE FLOW MODEL =    62

 MAXIMUM STEPSIZE WHICH MEETS STABILITY CRITERION OF THE SINK & SOURCE TERM
 = 0.2049E+05(WHEN MIN. R.F.=1)  AT K=   2, I=   1, J= 120

 MAXIMUM STEPSIZE WHICH MEETS STABILITY CRITERION OF THE DISPERSION TERM
 =  20.29    (WHEN MIN. R.F.=1)  AT K=   1, I=   1, J=  31
     1 CALLS TO GCG PACKAGE FOR TRANSPORT TIME STEP   3 IN FLOW TIME STEP 537 STRESS PERIOD   1
     6 TOTAL ITERATIONS
 
 SOLVING FOR HEAD 
 FLOW MODEL IS TRANSIENT
 FLOW MODEL CONTAINS CONSTANT-HEAD CELLS


 MAXIMUM STEPSIZE DURING WHICH ANY PARTICLE CANNOT MOVE MORE THAN ONE CELL
 =  5.493    (WHEN MIN. R.F.=1)  AT K=   4, I=   1, J=  74

 MAXIMUM STEPSIZE WHICH MEETS STABILITY CRITERION OF THE ADVECTION TERM
 (FOR PURE FINITE-DIFFERENCE OPTION, MIXELM=0) 
 =  4.039    (WHEN MIN. R.F.=1)  AT K=   2, I=   1, J=  81


 TOTAL NUMBER OF POINT SOURCES/SINKS PRESENT IN THE FLOW MODEL =    62

 MAXIMUM STEPSIZE WHICH MEETS STABILITY CRITERION OF THE SINK & SOURCE TERM
 =  6784.    (WHEN MIN. R.F.=1)  AT K=   2, I=   1, J= 120

 MAXIMUM STEPSIZE WHICH MEETS STABILITY CRITERION OF THE DISPERSION TERM
 =  20.29    (WHEN MIN. R.F.=1)  AT K=   1, I=   1, J=  31
     1 CALLS TO GCG PACKAGE FOR TRANSPORT TIME STEP   4 IN FLOW TIME STEP 537 STRESS PERIOD   1
     4 TOTAL ITERATIONS
  MAXIMUM CONCENTRATION CHANGES FOR EACH ITERATION:
  MAX. CHANGE LAYER,ROW,COL MAX. CHANGE LAYER,ROW,COL MAX. CHANGE LAYER,ROW,COL MAX. CHANGE LAYER,ROW,COL MAX. CHANGE LAYER,ROW,COL
 ------------------------------------------------------------------------------------------------------------------------------------
   0.1089E-01 (  2,  1, 76)  0.1654E-03 (  2,  1, 45)  0.3448E-05 (  2,  1, 77)  0.8764E-07 (  3,  1, 77)


                                          ================================================
                                                         FROM TIME =   5370.0     TO    5380.0    

 
 SOLVING FOR HEAD 
 FLOW MODEL IS TRANSIENT
 FLOW MODEL CONTAINS CONSTANT-HEAD CELLS


 MAXIMUM STEPSIZE DURING WHICH ANY PARTICLE CANNOT MOVE MORE THAN ONE CELL
 =  5.407    (WHEN MIN. R.F.=1)  AT K=   4, I=   1, J=  74

 MAXIMUM STEPSIZE WHICH MEETS STABILITY CRITERION OF THE ADVECTION TERM
 (FOR PURE FINITE-DIFFERENCE OPTION, MIXELM=0) 
 =  3.972    (WHEN MIN. R.F.=1)  AT K=   2, I=   1, J=  81


 TOTAL NUMBER OF POINT SOURCES/SINKS PRESENT IN THE FLOW MODEL =    62

 MAXIMUM STEPSIZE WHICH MEETS STABILITY CRITERION OF THE SINK & SOURCE TERM
 = 0.1000E+31(WHEN MIN. R.F.=1)  AT K=   0, I=   0, J=   0

 MAXIMUM STEPSIZE WHICH MEETS STABILITY CRITERION OF THE DISPERSION TERM
 =  20.29    (WHEN MIN. R.F.=1)  AT K=   1, I=   1, J=  31


     1 CALLS TO GCG PACKAGE FOR TRANSPORT TIME STEP   1 IN FLOW TIME STEP 538 STRESS PERIOD   1
     6 TOTAL ITERATIONS

 NO OUTPUT CONTROL FOR STRESS PERIOD    1   TIME STEP 538
 
 SOLVING FOR HEAD 
 FLOW MODEL IS TRANSIENT
 FLOW MODEL CONTAINS CONSTANT-HEAD CELLS


 MAXIMUM STEPSIZE DURING WHICH ANY PARTICLE CANNOT MOVE MORE THAN ONE CELL
 =  5.200    (WHEN MIN. R.F.=1)  AT K=   4, I=   1, J=  74

 MAXIMUM STEPSIZE WHICH MEETS STABILITY CRITERION OF THE ADVECTION TERM
 (FOR PURE FINITE-DIFFERENCE OPTION, MIXELM=0) 
 =  3.877    (WHEN MIN. R.F.=1)  AT K=   2, I=   1, J=  81


 TOTAL NUMBER OF POINT SOURCES/SINKS PRESENT IN THE FLOW MODEL =    62

 MAXIMUM STEPSIZE WHICH MEETS STABILITY CRITERION OF THE SINK & SOURCE TERM
 = 0.1000E+31(WHEN MIN. R.F.=1)  AT K=   0, I=   0, J=   0

 MAXIMUM STEPSIZE WHICH MEETS STABILITY CRITERION OF THE DISPERSION TERM
 =  20.29    (WHEN MIN. R.F.=1)  AT K=   1, I=   1, J=  31
     1 CALLS TO GCG PACKAGE FOR TRANSPORT TIME STEP   2 IN FLOW TIME STEP 538 STRESS PERIOD   1
     6 TOTAL ITERATIONS
 
 SOLVING FOR HEAD 
 FLOW MODEL IS TRANSIENT
 FLOW MODEL CONTAINS CONSTANT-HEAD CELLS


 MAXIMUM STEPSIZE DURING WHICH ANY PARTICLE CANNOT MOVE MORE THAN ONE CELL
 =  5.062    (WHEN MIN. R.F.=1)  AT K=   4, I=   1, J=  74

 MAXIMUM STEPSIZE WHICH MEETS STABILITY CRITERION OF THE ADVECTION TERM
 (FOR PURE FINITE-DIFFERENCE OPTION, MIXELM=0) 
 =  4.031    (WHEN MIN. R.F.=1)  AT K=   2, I=   1, J=  81


 TOTAL NUMBER OF POINT SOURCES/SINKS PRESENT IN THE FLOW MODEL =    62

 MAXIMUM STEPSIZE WHICH MEETS STABILITY CRITERION OF THE SINK & SOURCE TERM
 = 0.1000E+31(WHEN MIN. R.F.=1)  AT K=   0, I=   0, J=   0

 MAXIMUM STEPSIZE WHICH MEETS STABILITY CRITERION OF THE DISPERSION TERM
 =  20.29    (WHEN MIN. R.F.=1)  AT K=   1, I=   1, J=  31
     1 CALLS TO GCG PACKAGE FOR TRANSPORT TIME STEP   3 IN FLOW TIME STEP 538 STRESS PERIOD   1
     6 TOTAL ITERATIONS
 
 SOLVING FOR HEAD 
 FLOW MODEL IS TRANSIENT
 FLOW MODEL CONTAINS CONSTANT-HEAD CELLS


 MAXIMUM STEPSIZE DURING WHICH ANY PARTICLE CANNOT MOVE MORE THAN ONE CELL
 =  4.992    (WHEN MIN. R.F.=1)  AT K=   4, I=   1, J=  74

 MAXIMUM STEPSIZE WHICH MEETS STABILITY CRITERION OF THE ADVECTION TERM
 (FOR PURE FINITE-DIFFERENCE OPTION, MIXELM=0) 
 =  3.858    (WHEN MIN. R.F.=1)  AT K=   2, I=   1, J=  80


 TOTAL NUMBER OF POINT SOURCES/SINKS PRESENT IN THE FLOW MODEL =    62

 MAXIMUM STEPSIZE WHICH MEETS STABILITY CRITERION OF THE SINK & SOURCE TERM
 =  6323.    (WHEN MIN. R.F.=1)  AT K=   2, I=   1, J= 120

 MAXIMUM STEPSIZE WHICH MEETS STABILITY CRITERION OF THE DISPERSION TERM
 =  20.29    (WHEN MIN. R.F.=1)  AT K=   1, I=   1, J=  31
     1 CALLS TO GCG PACKAGE FOR TRANSPORT TIME STEP   4 IN FLOW TIME STEP 538 STRESS PERIOD   1
     5 TOTAL ITERATIONS
  MAXIMUM CONCENTRATION CHANGES FOR EACH ITERATION:
  MAX. CHANGE LAYER,ROW,COL MAX. CHANGE LAYER,ROW,COL MAX. CHANGE LAYER,ROW,COL MAX. CHANGE LAYER,ROW,COL MAX. CHANGE LAYER,ROW,COL
 ------------------------------------------------------------------------------------------------------------------------------------
   0.1279E-01 (  2,  1, 82)  0.1853E-03 (  3,  1, 42)  0.4849E-05 (  3,  1, 80)  0.1280E-06 (  3,  1, 43)  0.2175E-08 (  4,  1, 81)


                                          ================================================
                                                         FROM TIME =   5380.0     TO    5390.0    

 
 SOLVING FOR HEAD 
 FLOW MODEL IS TRANSIENT
 FLOW MODEL CONTAINS CONSTANT-HEAD CELLS


 MAXIMUM STEPSIZE DURING WHICH ANY PARTICLE CANNOT MOVE MORE THAN ONE CELL
 =  4.981    (WHEN MIN. R.F.=1)  AT K=   4, I=   1, J=  74

 MAXIMUM STEPSIZE WHICH MEETS STABILITY CRITERION OF THE ADVECTION TERM
 (FOR PURE FINITE-DIFFERENCE OPTION, MIXELM=0) 
 =  3.759    (WHEN MIN. R.F.=1)  AT K=   2, I=   1, J=  80


 TOTAL NUMBER OF POINT SOURCES/SINKS PRESENT IN THE FLOW MODEL =    62

 MAXIMUM STEPSIZE WHICH MEETS STABILITY CRITERION OF THE SINK & SOURCE TERM
 =  8262.    (WHEN MIN. R.F.=1)  AT K=   2, I=   1, J= 120

 MAXIMUM STEPSIZE WHICH MEETS STABILITY CRITERION OF THE DISPERSION TERM
 =  20.29    (WHEN MIN. R.F.=1)  AT K=   1, I=   1, J=  31


     1 CALLS TO GCG PACKAGE FOR TRANSPORT TIME STEP   1 IN FLOW TIME STEP 539 STRESS PERIOD   1
     6 TOTAL ITERATIONS

 NO OUTPUT CONTROL FOR STRESS PERIOD    1   TIME STEP 539
 
 SOLVING FOR HEAD 
 FLOW MODEL IS TRANSIENT
 FLOW MODEL CONTAINS CONSTANT-HEAD CELLS


 MAXIMUM STEPSIZE DURING WHICH ANY PARTICLE CANNOT MOVE MORE THAN ONE CELL
 =  4.989    (WHEN MIN. R.F.=1)  AT K=   4, I=   1, J=  74

 MAXIMUM STEPSIZE WHICH MEETS STABILITY CRITERION OF THE ADVECTION TERM
 (FOR PURE FINITE-DIFFERENCE OPTION, MIXELM=0) 
 =  3.605    (WHEN MIN. R.F.=1)  AT K=   2, I=   1, J=  80


 TOTAL NUMBER OF POINT SOURCES/SINKS PRESENT IN THE FLOW MODEL =    62

 MAXIMUM STEPSIZE WHICH MEETS STABILITY CRITERION OF THE SINK & SOURCE TERM
 =  2659.    (WHEN MIN. R.F.=1)  AT K=   2, I=   1, J= 120

 MAXIMUM STEPSIZE WHICH MEETS STABILITY CRITERION OF THE DISPERSION TERM
 =  20.29    (WHEN MIN. R.F.=1)  AT K=   1, I=   1, J=  31
     1 CALLS TO GCG PACKAGE FOR TRANSPORT TIME STEP   2 IN FLOW TIME STEP 539 STRESS PERIOD   1
     6 TOTAL ITERATIONS
 
 SOLVING FOR HEAD 
 FLOW MODEL IS TRANSIENT
 FLOW MODEL CONTAINS CONSTANT-HEAD CELLS


 MAXIMUM STEPSIZE DURING WHICH ANY PARTICLE CANNOT MOVE MORE THAN ONE CELL
 =  5.042    (WHEN MIN. R.F.=1)  AT K=   4, I=   1, J=  74

 MAXIMUM STEPSIZE WHICH MEETS STABILITY CRITERION OF THE ADVECTION TERM
 (FOR PURE FINITE-DIFFERENCE OPTION, MIXELM=0) 
 =  3.605    (WHEN MIN. R.F.=1)  AT K=   2, I=   1, J=  80


 TOTAL NUMBER OF POINT SOURCES/SINKS PRESENT IN THE FLOW MODEL =    62

 MAXIMUM STEPSIZE WHICH MEETS STABILITY CRITERION OF THE SINK & SOURCE TERM
 =  3777.    (WHEN MIN. R.F.=1)  AT K=   2, I=   1, J= 120

 MAXIMUM STEPSIZE WHICH MEETS STABILITY CRITERION OF THE DISPERSION TERM
 =  20.29    (WHEN MIN. R.F.=1)  AT K=   1, I=   1, J=  31
     1 CALLS TO GCG PACKAGE FOR TRANSPORT TIME STEP   3 IN FLOW TIME STEP 539 STRESS PERIOD   1
     6 TOTAL ITERATIONS
 
 SOLVING FOR HEAD 
 FLOW MODEL IS TRANSIENT
 FLOW MODEL CONTAINS CONSTANT-HEAD CELLS


 MAXIMUM STEPSIZE DURING WHICH ANY PARTICLE CANNOT MOVE MORE THAN ONE CELL
 =  5.095    (WHEN MIN. R.F.=1)  AT K=   5, I=   1, J=  74

 MAXIMUM STEPSIZE WHICH MEETS STABILITY CRITERION OF THE ADVECTION TERM
 (FOR PURE FINITE-DIFFERENCE OPTION, MIXELM=0) 
 =  3.819    (WHEN MIN. R.F.=1)  AT K=   2, I=   1, J=  80


 TOTAL NUMBER OF POINT SOURCES/SINKS PRESENT IN THE FLOW MODEL =    62

 MAXIMUM STEPSIZE WHICH MEETS STABILITY CRITERION OF THE SINK & SOURCE TERM
 =  5654.    (WHEN MIN. R.F.=1)  AT K=   2, I=   1, J= 120

 MAXIMUM STEPSIZE WHICH MEETS STABILITY CRITERION OF THE DISPERSION TERM
 =  20.29    (WHEN MIN. R.F.=1)  AT K=   1, I=   1, J=  31
     1 CALLS TO GCG PACKAGE FOR TRANSPORT TIME STEP   4 IN FLOW TIME STEP 539 STRESS PERIOD   1
     5 TOTAL ITERATIONS
  MAXIMUM CONCENTRATION CHANGES FOR EACH ITERATION:
  MAX. CHANGE LAYER,ROW,COL MAX. CHANGE LAYER,ROW,COL MAX. CHANGE LAYER,ROW,COL MAX. CHANGE LAYER,ROW,COL MAX. CHANGE LAYER,ROW,COL
 ------------------------------------------------------------------------------------------------------------------------------------
   0.1993E-01 (  2,  1, 81)  0.4801E-03 (  2,  1, 79)  0.1986E-04 (  3,  1, 79)  0.5708E-06 (  4,  1, 79)  0.1730E-07 (  4,  1, 78)


                                          ================================================
                                                         FROM TIME =   5390.0     TO    5400.0    

 
 SOLVING FOR HEAD 
 FLOW MODEL IS TRANSIENT
 FLOW MODEL CONTAINS CONSTANT-HEAD CELLS


 MAXIMUM STEPSIZE DURING WHICH ANY PARTICLE CANNOT MOVE MORE THAN ONE CELL
 =  5.132    (WHEN MIN. R.F.=1)  AT K=   5, I=   1, J=  74

 MAXIMUM STEPSIZE WHICH MEETS STABILITY CRITERION OF THE ADVECTION TERM
 (FOR PURE FINITE-DIFFERENCE OPTION, MIXELM=0) 
 =  3.904    (WHEN MIN. R.F.=1)  AT K=   2, I=   1, J=  79


 TOTAL NUMBER OF POINT SOURCES/SINKS PRESENT IN THE FLOW MODEL =    62

 MAXIMUM STEPSIZE WHICH MEETS STABILITY CRITERION OF THE SINK & SOURCE TERM
 = 0.1000E+31(WHEN MIN. R.F.=1)  AT K=   0, I=   0, J=   0

 MAXIMUM STEPSIZE WHICH MEETS STABILITY CRITERION OF THE DISPERSION TERM
 =  20.29    (WHEN MIN. R.F.=1)  AT K=   1, I=   1, J=  31


     1 CALLS TO GCG PACKAGE FOR TRANSPORT TIME STEP   1 IN FLOW TIME STEP 540 STRESS PERIOD   1
     6 TOTAL ITERATIONS

 NO OUTPUT CONTROL FOR STRESS PERIOD    1   TIME STEP 540
 
 SOLVING FOR HEAD 
 FLOW MODEL IS TRANSIENT
 FLOW MODEL CONTAINS CONSTANT-HEAD CELLS


 MAXIMUM STEPSIZE DURING WHICH ANY PARTICLE CANNOT MOVE MORE THAN ONE CELL
 =  5.228    (WHEN MIN. R.F.=1)  AT K=   5, I=   1, J=  74

 MAXIMUM STEPSIZE WHICH MEETS STABILITY CRITERION OF THE ADVECTION TERM
 (FOR PURE FINITE-DIFFERENCE OPTION, MIXELM=0) 
 =  3.633    (WHEN MIN. R.F.=1)  AT K=   2, I=   1, J=  79


 TOTAL NUMBER OF POINT SOURCES/SINKS PRESENT IN THE FLOW MODEL =    62

 MAXIMUM STEPSIZE WHICH MEETS STABILITY CRITERION OF THE SINK & SOURCE TERM
 =  6370.    (WHEN MIN. R.F.=1)  AT K=   2, I=   1, J= 120

 MAXIMUM STEPSIZE WHICH MEETS STABILITY CRITERION OF THE DISPERSION TERM
 =  20.29    (WHEN MIN. R.F.=1)  AT K=   1, I=   1, J=  31
     1 CALLS TO GCG PACKAGE FOR TRANSPORT TIME STEP   2 IN FLOW TIME STEP 540 STRESS PERIOD   1
     6 TOTAL ITERATIONS
 
 SOLVING FOR HEAD 
 FLOW MODEL IS TRANSIENT
 FLOW MODEL CONTAINS CONSTANT-HEAD CELLS


 MAXIMUM STEPSIZE DURING WHICH ANY PARTICLE CANNOT MOVE MORE THAN ONE CELL
 =  5.368    (WHEN MIN. R.F.=1)  AT K=   6, I=   1, J=  74

 MAXIMUM STEPSIZE WHICH MEETS STABILITY CRITERION OF THE ADVECTION TERM
 (FOR PURE FINITE-DIFFERENCE OPTION, MIXELM=0) 
 =  3.528    (WHEN MIN. R.F.=1)  AT K=   2, I=   1, J=  79


 TOTAL NUMBER OF POINT SOURCES/SINKS PRESENT IN THE FLOW MODEL =    62

 MAXIMUM STEPSIZE WHICH MEETS STABILITY CRITERION OF THE SINK & SOURCE TERM
 =  4547.    (WHEN MIN. R.F.=1)  AT K=   2, I=   1, J= 120

 MAXIMUM STEPSIZE WHICH MEETS STABILITY CRITERION OF THE DISPERSION TERM
 =  20.29    (WHEN MIN. R.F.=1)  AT K=   1, I=   1, J=  31
     1 CALLS TO GCG PACKAGE FOR TRANSPORT TIME STEP   3 IN FLOW TIME STEP 540 STRESS PERIOD   1
     6 TOTAL ITERATIONS
 
 SOLVING FOR HEAD 
 FLOW MODEL IS TRANSIENT
 FLOW MODEL CONTAINS CONSTANT-HEAD CELLS


 MAXIMUM STEPSIZE DURING WHICH ANY PARTICLE CANNOT MOVE MORE THAN ONE CELL
 =  5.458    (WHEN MIN. R.F.=1)  AT K=   6, I=   1, J=  74

 MAXIMUM STEPSIZE WHICH MEETS STABILITY CRITERION OF THE ADVECTION TERM
 (FOR PURE FINITE-DIFFERENCE OPTION, MIXELM=0) 
 =  3.568    (WHEN MIN. R.F.=1)  AT K=   2, I=   1, J=  79


 TOTAL NUMBER OF POINT SOURCES/SINKS PRESENT IN THE FLOW MODEL =    62

 MAXIMUM STEPSIZE WHICH MEETS STABILITY CRITERION OF THE SINK & SOURCE TERM
 =  3519.    (WHEN MIN. R.F.=1)  AT K=   2, I=   1, J= 120

 MAXIMUM STEPSIZE WHICH MEETS STABILITY CRITERION OF THE DISPERSION TERM
 =  20.29    (WHEN MIN. R.F.=1)  AT K=   1, I=   1, J=  31
     1 CALLS TO GCG PACKAGE FOR TRANSPORT TIME STEP   4 IN FLOW TIME STEP 540 STRESS PERIOD   1
     5 TOTAL ITERATIONS
  MAXIMUM CONCENTRATION CHANGES FOR EACH ITERATION:
  MAX. CHANGE LAYER,ROW,COL MAX. CHANGE LAYER,ROW,COL MAX. CHANGE LAYER,ROW,COL MAX. CHANGE LAYER,ROW,COL MAX. CHANGE LAYER,ROW,COL
 ------------------------------------------------------------------------------------------------------------------------------------
   0.1863E-01 (  2,  1, 80)  0.3881E-03 (  2,  1, 80)  0.1417E-04 (  3,  1, 78)  0.6745E-06 (  3,  1, 76)  0.1722E-07 (  4,  1, 76)


                                          ================================================
                                                         FROM TIME =   5400.0     TO    5410.0    

 
 SOLVING FOR HEAD 
 FLOW MODEL IS TRANSIENT
 FLOW MODEL CONTAINS CONSTANT-HEAD CELLS


 MAXIMUM STEPSIZE DURING WHICH ANY PARTICLE CANNOT MOVE MORE THAN ONE CELL
 =  5.524    (WHEN MIN. R.F.=1)  AT K=   6, I=   1, J=  74

 MAXIMUM STEPSIZE WHICH MEETS STABILITY CRITERION OF THE ADVECTION TERM
 (FOR PURE FINITE-DIFFERENCE OPTION, MIXELM=0) 
 =  3.658    (WHEN MIN. R.F.=1)  AT K=   2, I=   1, J=  79


 TOTAL NUMBER OF POINT SOURCES/SINKS PRESENT IN THE FLOW MODEL =    62

 MAXIMUM STEPSIZE WHICH MEETS STABILITY CRITERION OF THE SINK & SOURCE TERM
 = 0.1794E+05(WHEN MIN. R.F.=1)  AT K=   2, I=   1, J= 120

 MAXIMUM STEPSIZE WHICH MEETS STABILITY CRITERION OF THE DISPERSION TERM
 =  20.29    (WHEN MIN. R.F.=1)  AT K=   1, I=   1, J=  31


     1 CALLS TO GCG PACKAGE FOR TRANSPORT TIME STEP   1 IN FLOW TIME STEP 541 STRESS PERIOD   1
     6 TOTAL ITERATIONS

 NO OUTPUT CONTROL FOR STRESS PERIOD    1   TIME STEP 541
 
 SOLVING FOR HEAD 
 FLOW MODEL IS TRANSIENT
 FLOW MODEL CONTAINS CONSTANT-HEAD CELLS


 MAXIMUM STEPSIZE DURING WHICH ANY PARTICLE CANNOT MOVE MORE THAN ONE CELL
 =  5.499    (WHEN MIN. R.F.=1)  AT K=   4, I=   1, J=  47

 MAXIMUM STEPSIZE WHICH MEETS STABILITY CRITERION OF THE ADVECTION TERM
 (FOR PURE FINITE-DIFFERENCE OPTION, MIXELM=0) 
 =  3.961    (WHEN MIN. R.F.=1)  AT K=   2, I=   1, J=  79


 TOTAL NUMBER OF POINT SOURCES/SINKS PRESENT IN THE FLOW MODEL =    62

 MAXIMUM STEPSIZE WHICH MEETS STABILITY CRITERION OF THE SINK & SOURCE TERM
 =  4951.    (WHEN MIN. R.F.=1)  AT K=   2, I=   1, J= 120

 MAXIMUM STEPSIZE WHICH MEETS STABILITY CRITERION OF THE DISPERSION TERM
 =  20.29    (WHEN MIN. R.F.=1)  AT K=   1, I=   1, J=  31
     1 CALLS TO GCG PACKAGE FOR TRANSPORT TIME STEP   2 IN FLOW TIME STEP 541 STRESS PERIOD   1
     6 TOTAL ITERATIONS
 
 SOLVING FOR HEAD 
 FLOW MODEL IS TRANSIENT
 FLOW MODEL CONTAINS CONSTANT-HEAD CELLS


 MAXIMUM STEPSIZE DURING WHICH ANY PARTICLE CANNOT MOVE MORE THAN ONE CELL
 =  5.342    (WHEN MIN. R.F.=1)  AT K=   4, I=   1, J=  47

 MAXIMUM STEPSIZE WHICH MEETS STABILITY CRITERION OF THE ADVECTION TERM
 (FOR PURE FINITE-DIFFERENCE OPTION, MIXELM=0) 
 =  3.835    (WHEN MIN. R.F.=1)  AT K=   2, I=   1, J=  78


 TOTAL NUMBER OF POINT SOURCES/SINKS PRESENT IN THE FLOW MODEL =    62

 MAXIMUM STEPSIZE WHICH MEETS STABILITY CRITERION OF THE SINK & SOURCE TERM
 =  4210.    (WHEN MIN. R.F.=1)  AT K=   2, I=   1, J= 120

 MAXIMUM STEPSIZE WHICH MEETS STABILITY CRITERION OF THE DISPERSION TERM
 =  20.29    (WHEN MIN. R.F.=1)  AT K=   1, I=   1, J=  31
     1 CALLS TO GCG PACKAGE FOR TRANSPORT TIME STEP   3 IN FLOW TIME STEP 541 STRESS PERIOD   1
     6 TOTAL ITERATIONS
 
 SOLVING FOR HEAD 
 FLOW MODEL IS TRANSIENT
 FLOW MODEL CONTAINS CONSTANT-HEAD CELLS


 MAXIMUM STEPSIZE DURING WHICH ANY PARTICLE CANNOT MOVE MORE THAN ONE CELL
 =  5.280    (WHEN MIN. R.F.=1)  AT K=   4, I=   1, J=  47

 MAXIMUM STEPSIZE WHICH MEETS STABILITY CRITERION OF THE ADVECTION TERM
 (FOR PURE FINITE-DIFFERENCE OPTION, MIXELM=0) 
 =  3.655    (WHEN MIN. R.F.=1)  AT K=   2, I=   1, J=  78


 TOTAL NUMBER OF POINT SOURCES/SINKS PRESENT IN THE FLOW MODEL =    62

 MAXIMUM STEPSIZE WHICH MEETS STABILITY CRITERION OF THE SINK & SOURCE TERM
 =  2916.    (WHEN MIN. R.F.=1)  AT K=   2, I=   1, J= 120

 MAXIMUM STEPSIZE WHICH MEETS STABILITY CRITERION OF THE DISPERSION TERM
 =  20.29    (WHEN MIN. R.F.=1)  AT K=   1, I=   1, J=  31
     1 CALLS TO GCG PACKAGE FOR TRANSPORT TIME STEP   4 IN FLOW TIME STEP 541 STRESS PERIOD   1
     5 TOTAL ITERATIONS
  MAXIMUM CONCENTRATION CHANGES FOR EACH ITERATION:
  MAX. CHANGE LAYER,ROW,COL MAX. CHANGE LAYER,ROW,COL MAX. CHANGE LAYER,ROW,COL MAX. CHANGE LAYER,ROW,COL MAX. CHANGE LAYER,ROW,COL
 ------------------------------------------------------------------------------------------------------------------------------------
   0.1765E-01 (  2,  1, 39)  0.4704E-03 (  2,  1, 78)  0.1404E-04 (  2,  1, 80)  0.4928E-06 (  3,  1, 80)  0.1629E-07 (  4,  1, 79)


                                          ================================================
                                                         FROM TIME =   5410.0     TO    5420.0    

 
 SOLVING FOR HEAD 
 FLOW MODEL IS TRANSIENT
 FLOW MODEL CONTAINS CONSTANT-HEAD CELLS


 MAXIMUM STEPSIZE DURING WHICH ANY PARTICLE CANNOT MOVE MORE THAN ONE CELL
 =  5.289    (WHEN MIN. R.F.=1)  AT K=   4, I=   1, J=  47

 MAXIMUM STEPSIZE WHICH MEETS STABILITY CRITERION OF THE ADVECTION TERM
 (FOR PURE FINITE-DIFFERENCE OPTION, MIXELM=0) 
 =  3.635    (WHEN MIN. R.F.=1)  AT K=   2, I=   1, J=  78


 TOTAL NUMBER OF POINT SOURCES/SINKS PRESENT IN THE FLOW MODEL =    62

 MAXIMUM STEPSIZE WHICH MEETS STABILITY CRITERION OF THE SINK & SOURCE TERM
 =  7611.    (WHEN MIN. R.F.=1)  AT K=   2, I=   1, J= 120

 MAXIMUM STEPSIZE WHICH MEETS STABILITY CRITERION OF THE DISPERSION TERM
 =  20.29    (WHEN MIN. R.F.=1)  AT K=   1, I=   1, J=  31


     1 CALLS TO GCG PACKAGE FOR TRANSPORT TIME STEP   1 IN FLOW TIME STEP 542 STRESS PERIOD   1
     6 TOTAL ITERATIONS

 NO OUTPUT CONTROL FOR STRESS PERIOD    1   TIME STEP 542
 
 SOLVING FOR HEAD 
 FLOW MODEL IS TRANSIENT
 FLOW MODEL CONTAINS CONSTANT-HEAD CELLS


 MAXIMUM STEPSIZE DURING WHICH ANY PARTICLE CANNOT MOVE MORE THAN ONE CELL
 =  5.363    (WHEN MIN. R.F.=1)  AT K=   4, I=   1, J=  47

 MAXIMUM STEPSIZE WHICH MEETS STABILITY CRITERION OF THE ADVECTION TERM
 (FOR PURE FINITE-DIFFERENCE OPTION, MIXELM=0) 
 =  3.675    (WHEN MIN. R.F.=1)  AT K=   2, I=   1, J=  78


 TOTAL NUMBER OF POINT SOURCES/SINKS PRESENT IN THE FLOW MODEL =    62

 MAXIMUM STEPSIZE WHICH MEETS STABILITY CRITERION OF THE SINK & SOURCE TERM
 =  5962.    (WHEN MIN. R.F.=1)  AT K=   2, I=   1, J= 120

 MAXIMUM STEPSIZE WHICH MEETS STABILITY CRITERION OF THE DISPERSION TERM
 =  20.29    (WHEN MIN. R.F.=1)  AT K=   1, I=   1, J=  31
     1 CALLS TO GCG PACKAGE FOR TRANSPORT TIME STEP   2 IN FLOW TIME STEP 542 STRESS PERIOD   1
     6 TOTAL ITERATIONS
 
 SOLVING FOR HEAD 
 FLOW MODEL IS TRANSIENT
 FLOW MODEL CONTAINS CONSTANT-HEAD CELLS


 MAXIMUM STEPSIZE DURING WHICH ANY PARTICLE CANNOT MOVE MORE THAN ONE CELL
 =  5.418    (WHEN MIN. R.F.=1)  AT K=   5, I=   1, J=  47

 MAXIMUM STEPSIZE WHICH MEETS STABILITY CRITERION OF THE ADVECTION TERM
 (FOR PURE FINITE-DIFFERENCE OPTION, MIXELM=0) 
 =  3.792    (WHEN MIN. R.F.=1)  AT K=   2, I=   1, J=  41


 TOTAL NUMBER OF POINT SOURCES/SINKS PRESENT IN THE FLOW MODEL =    62

 MAXIMUM STEPSIZE WHICH MEETS STABILITY CRITERION OF THE SINK & SOURCE TERM
 =  6127.    (WHEN MIN. R.F.=1)  AT K=   2, I=   1, J= 120

 MAXIMUM STEPSIZE WHICH MEETS STABILITY CRITERION OF THE DISPERSION TERM
 =  20.29    (WHEN MIN. R.F.=1)  AT K=   1, I=   1, J=  31
     1 CALLS TO GCG PACKAGE FOR TRANSPORT TIME STEP   3 IN FLOW TIME STEP 542 STRESS PERIOD   1
     6 TOTAL ITERATIONS
 
 SOLVING FOR HEAD 
 FLOW MODEL IS TRANSIENT
 FLOW MODEL CONTAINS CONSTANT-HEAD CELLS


 MAXIMUM STEPSIZE DURING WHICH ANY PARTICLE CANNOT MOVE MORE THAN ONE CELL
 =  5.507    (WHEN MIN. R.F.=1)  AT K=   5, I=   1, J=  47

 MAXIMUM STEPSIZE WHICH MEETS STABILITY CRITERION OF THE ADVECTION TERM
 (FOR PURE FINITE-DIFFERENCE OPTION, MIXELM=0) 
 =  3.947    (WHEN MIN. R.F.=1)  AT K=   2, I=   1, J=  41


 TOTAL NUMBER OF POINT SOURCES/SINKS PRESENT IN THE FLOW MODEL =    62

 MAXIMUM STEPSIZE WHICH MEETS STABILITY CRITERION OF THE SINK & SOURCE TERM
 =  4509.    (WHEN MIN. R.F.=1)  AT K=   2, I=   1, J= 120

 MAXIMUM STEPSIZE WHICH MEETS STABILITY CRITERION OF THE DISPERSION TERM
 =  20.29    (WHEN MIN. R.F.=1)  AT K=   1, I=   1, J=  31
     1 CALLS TO GCG PACKAGE FOR TRANSPORT TIME STEP   4 IN FLOW TIME STEP 542 STRESS PERIOD   1
     5 TOTAL ITERATIONS
  MAXIMUM CONCENTRATION CHANGES FOR EACH ITERATION:
  MAX. CHANGE LAYER,ROW,COL MAX. CHANGE LAYER,ROW,COL MAX. CHANGE LAYER,ROW,COL MAX. CHANGE LAYER,ROW,COL MAX. CHANGE LAYER,ROW,COL
 ------------------------------------------------------------------------------------------------------------------------------------
   0.2125E-01 (  2,  1, 79)  0.6927E-03 (  2,  1, 77)  0.2408E-04 (  3,  1, 42)  0.8003E-06 (  4,  1, 42)  0.2938E-07 (  5,  1, 80)


                                          ================================================
                                                         FROM TIME =   5420.0     TO    5430.0    

 
 SOLVING FOR HEAD 
 FLOW MODEL IS TRANSIENT
 FLOW MODEL CONTAINS CONSTANT-HEAD CELLS


 MAXIMUM STEPSIZE DURING WHICH ANY PARTICLE CANNOT MOVE MORE THAN ONE CELL
 =  5.590    (WHEN MIN. R.F.=1)  AT K=   5, I=   1, J=  47

 MAXIMUM STEPSIZE WHICH MEETS STABILITY CRITERION OF THE ADVECTION TERM
 (FOR PURE FINITE-DIFFERENCE OPTION, MIXELM=0) 
 =  4.081    (WHEN MIN. R.F.=1)  AT K=   2, I=   1, J=  42


 TOTAL NUMBER OF POINT SOURCES/SINKS PRESENT IN THE FLOW MODEL =    62

 MAXIMUM STEPSIZE WHICH MEETS STABILITY CRITERION OF THE SINK & SOURCE TERM
 =  6991.    (WHEN MIN. R.F.=1)  AT K=   2, I=   1, J= 120

 MAXIMUM STEPSIZE WHICH MEETS STABILITY CRITERION OF THE DISPERSION TERM
 =  20.29    (WHEN MIN. R.F.=1)  AT K=   1, I=   1, J=  31


     1 CALLS TO GCG PACKAGE FOR TRANSPORT TIME STEP   1 IN FLOW TIME STEP 543 STRESS PERIOD   1
     6 TOTAL ITERATIONS

 NO OUTPUT CONTROL FOR STRESS PERIOD    1   TIME STEP 543
 
 SOLVING FOR HEAD 
 FLOW MODEL IS TRANSIENT
 FLOW MODEL CONTAINS CONSTANT-HEAD CELLS


 MAXIMUM STEPSIZE DURING WHICH ANY PARTICLE CANNOT MOVE MORE THAN ONE CELL
 =  5.726    (WHEN MIN. R.F.=1)  AT K=   6, I=   1, J=  47

 MAXIMUM STEPSIZE WHICH MEETS STABILITY CRITERION OF THE ADVECTION TERM
 (FOR PURE FINITE-DIFFERENCE OPTION, MIXELM=0) 
 =  3.803    (WHEN MIN. R.F.=1)  AT K=   2, I=   1, J=  42


 TOTAL NUMBER OF POINT SOURCES/SINKS PRESENT IN THE FLOW MODEL =    62

 MAXIMUM STEPSIZE WHICH MEETS STABILITY CRITERION OF THE SINK & SOURCE TERM
 =  3006.    (WHEN MIN. R.F.=1)  AT K=   2, I=   1, J= 120

 MAXIMUM STEPSIZE WHICH MEETS STABILITY CRITERION OF THE DISPERSION TERM
 =  20.29    (WHEN MIN. R.F.=1)  AT K=   1, I=   1, J=  31
     1 CALLS TO GCG PACKAGE FOR TRANSPORT TIME STEP   2 IN FLOW TIME STEP 543 STRESS PERIOD   1
     6 TOTAL ITERATIONS
 
 SOLVING FOR HEAD 
 FLOW MODEL IS TRANSIENT
 FLOW MODEL CONTAINS CONSTANT-HEAD CELLS


 MAXIMUM STEPSIZE DURING WHICH ANY PARTICLE CANNOT MOVE MORE THAN ONE CELL
 =  5.842    (WHEN MIN. R.F.=1)  AT K=   6, I=   1, J=  47

 MAXIMUM STEPSIZE WHICH MEETS STABILITY CRITERION OF THE ADVECTION TERM
 (FOR PURE FINITE-DIFFERENCE OPTION, MIXELM=0) 
 =  3.709    (WHEN MIN. R.F.=1)  AT K=   2, I=   1, J=  42


 TOTAL NUMBER OF POINT SOURCES/SINKS PRESENT IN THE FLOW MODEL =    62

 MAXIMUM STEPSIZE WHICH MEETS STABILITY CRITERION OF THE SINK & SOURCE TERM
 =  3323.    (WHEN MIN. R.F.=1)  AT K=   2, I=   1, J= 120

 MAXIMUM STEPSIZE WHICH MEETS STABILITY CRITERION OF THE DISPERSION TERM
 =  20.29    (WHEN MIN. R.F.=1)  AT K=   1, I=   1, J=  31
     1 CALLS TO GCG PACKAGE FOR TRANSPORT TIME STEP   3 IN FLOW TIME STEP 543 STRESS PERIOD   1
     6 TOTAL ITERATIONS
 
 SOLVING FOR HEAD 
 FLOW MODEL IS TRANSIENT
 FLOW MODEL CONTAINS CONSTANT-HEAD CELLS


 MAXIMUM STEPSIZE DURING WHICH ANY PARTICLE CANNOT MOVE MORE THAN ONE CELL
 =  5.993    (WHEN MIN. R.F.=1)  AT K=   7, I=   1, J=  47

 MAXIMUM STEPSIZE WHICH MEETS STABILITY CRITERION OF THE ADVECTION TERM
 (FOR PURE FINITE-DIFFERENCE OPTION, MIXELM=0) 
 =  3.758    (WHEN MIN. R.F.=1)  AT K=   2, I=   1, J=  42


 TOTAL NUMBER OF POINT SOURCES/SINKS PRESENT IN THE FLOW MODEL =    62

 MAXIMUM STEPSIZE WHICH MEETS STABILITY CRITERION OF THE SINK & SOURCE TERM
 =  3160.    (WHEN MIN. R.F.=1)  AT K=   2, I=   1, J= 120

 MAXIMUM STEPSIZE WHICH MEETS STABILITY CRITERION OF THE DISPERSION TERM
 =  20.29    (WHEN MIN. R.F.=1)  AT K=   1, I=   1, J=  31
     1 CALLS TO GCG PACKAGE FOR TRANSPORT TIME STEP   4 IN FLOW TIME STEP 543 STRESS PERIOD   1
     5 TOTAL ITERATIONS
  MAXIMUM CONCENTRATION CHANGES FOR EACH ITERATION:
  MAX. CHANGE LAYER,ROW,COL MAX. CHANGE LAYER,ROW,COL MAX. CHANGE LAYER,ROW,COL MAX. CHANGE LAYER,ROW,COL MAX. CHANGE LAYER,ROW,COL
 ------------------------------------------------------------------------------------------------------------------------------------
   0.1388E-01 (  2,  1, 78)  0.2441E-03 (  2,  1, 78)  0.5890E-05 (  2,  1, 79)  0.2069E-06 (  3,  1, 45)  0.3969E-08 (  4,  1, 45)


                                          ================================================
                                                         FROM TIME =   5430.0     TO    5440.0    

 
 SOLVING FOR HEAD 
 FLOW MODEL IS TRANSIENT
 FLOW MODEL CONTAINS CONSTANT-HEAD CELLS


 MAXIMUM STEPSIZE DURING WHICH ANY PARTICLE CANNOT MOVE MORE THAN ONE CELL
 =  6.025    (WHEN MIN. R.F.=1)  AT K=   7, I=   1, J=  47

 MAXIMUM STEPSIZE WHICH MEETS STABILITY CRITERION OF THE ADVECTION TERM
 (FOR PURE FINITE-DIFFERENCE OPTION, MIXELM=0) 
 =  3.818    (WHEN MIN. R.F.=1)  AT K=   2, I=   1, J=  42


 TOTAL NUMBER OF POINT SOURCES/SINKS PRESENT IN THE FLOW MODEL =    62

 MAXIMUM STEPSIZE WHICH MEETS STABILITY CRITERION OF THE SINK & SOURCE TERM
 = 0.1051E+05(WHEN MIN. R.F.=1)  AT K=   2, I=   1, J= 120

 MAXIMUM STEPSIZE WHICH MEETS STABILITY CRITERION OF THE DISPERSION TERM
 =  20.29    (WHEN MIN. R.F.=1)  AT K=   1, I=   1, J=  31


     1 CALLS TO GCG PACKAGE FOR TRANSPORT TIME STEP   1 IN FLOW TIME STEP 544 STRESS PERIOD   1
     6 TOTAL ITERATIONS

 NO OUTPUT CONTROL FOR STRESS PERIOD    1   TIME STEP 544
 
 SOLVING FOR HEAD 
 FLOW MODEL IS TRANSIENT
 FLOW MODEL CONTAINS CONSTANT-HEAD CELLS


 MAXIMUM STEPSIZE DURING WHICH ANY PARTICLE CANNOT MOVE MORE THAN ONE CELL
 =  6.128    (WHEN MIN. R.F.=1)  AT K=   7, I=   1, J=  47

 MAXIMUM STEPSIZE WHICH MEETS STABILITY CRITERION OF THE ADVECTION TERM
 (FOR PURE FINITE-DIFFERENCE OPTION, MIXELM=0) 
 =  4.098    (WHEN MIN. R.F.=1)  AT K=   2, I=   1, J=  42


 TOTAL NUMBER OF POINT SOURCES/SINKS PRESENT IN THE FLOW MODEL =    62

 MAXIMUM STEPSIZE WHICH MEETS STABILITY CRITERION OF THE SINK & SOURCE TERM
 =  2344.    (WHEN MIN. R.F.=1)  AT K=   2, I=   1, J= 120

 MAXIMUM STEPSIZE WHICH MEETS STABILITY CRITERION OF THE DISPERSION TERM
 =  20.29    (WHEN MIN. R.F.=1)  AT K=   1, I=   1, J=  31
     1 CALLS TO GCG PACKAGE FOR TRANSPORT TIME STEP   2 IN FLOW TIME STEP 544 STRESS PERIOD   1
     6 TOTAL ITERATIONS
 
 SOLVING FOR HEAD 
 FLOW MODEL IS TRANSIENT
 FLOW MODEL CONTAINS CONSTANT-HEAD CELLS


 MAXIMUM STEPSIZE DURING WHICH ANY PARTICLE CANNOT MOVE MORE THAN ONE CELL
 =  6.248    (WHEN MIN. R.F.=1)  AT K=   4, I=   1, J=  48

 MAXIMUM STEPSIZE WHICH MEETS STABILITY CRITERION OF THE ADVECTION TERM
 (FOR PURE FINITE-DIFFERENCE OPTION, MIXELM=0) 
 =  3.924    (WHEN MIN. R.F.=1)  AT K=   2, I=   1, J=  43


 TOTAL NUMBER OF POINT SOURCES/SINKS PRESENT IN THE FLOW MODEL =    62

 MAXIMUM STEPSIZE WHICH MEETS STABILITY CRITERION OF THE SINK & SOURCE TERM
 =  1735.    (WHEN MIN. R.F.=1)  AT K=   2, I=   1, J= 120

 MAXIMUM STEPSIZE WHICH MEETS STABILITY CRITERION OF THE DISPERSION TERM
 =  20.29    (WHEN MIN. R.F.=1)  AT K=   1, I=   1, J=  31
     1 CALLS TO GCG PACKAGE FOR TRANSPORT TIME STEP   3 IN FLOW TIME STEP 544 STRESS PERIOD   1
     6 TOTAL ITERATIONS
 
 SOLVING FOR HEAD 
 FLOW MODEL IS TRANSIENT
 FLOW MODEL CONTAINS CONSTANT-HEAD CELLS


 MAXIMUM STEPSIZE DURING WHICH ANY PARTICLE CANNOT MOVE MORE THAN ONE CELL
 =  6.262    (WHEN MIN. R.F.=1)  AT K=   4, I=   1, J=  48

 MAXIMUM STEPSIZE WHICH MEETS STABILITY CRITERION OF THE ADVECTION TERM
 (FOR PURE FINITE-DIFFERENCE OPTION, MIXELM=0) 
 =  3.775    (WHEN MIN. R.F.=1)  AT K=   2, I=   1, J=  43


 TOTAL NUMBER OF POINT SOURCES/SINKS PRESENT IN THE FLOW MODEL =    62

 MAXIMUM STEPSIZE WHICH MEETS STABILITY CRITERION OF THE SINK & SOURCE TERM
 =  1439.    (WHEN MIN. R.F.=1)  AT K=   2, I=   1, J= 120

 MAXIMUM STEPSIZE WHICH MEETS STABILITY CRITERION OF THE DISPERSION TERM
 =  20.29    (WHEN MIN. R.F.=1)  AT K=   1, I=   1, J=  31
     1 CALLS TO GCG PACKAGE FOR TRANSPORT TIME STEP   4 IN FLOW TIME STEP 544 STRESS PERIOD   1
     5 TOTAL ITERATIONS
  MAXIMUM CONCENTRATION CHANGES FOR EACH ITERATION:
  MAX. CHANGE LAYER,ROW,COL MAX. CHANGE LAYER,ROW,COL MAX. CHANGE LAYER,ROW,COL MAX. CHANGE LAYER,ROW,COL MAX. CHANGE LAYER,ROW,COL
 ------------------------------------------------------------------------------------------------------------------------------------
   0.1321E-01 (  2,  1, 90)  0.3035E-03 (  2,  1, 76)  0.6294E-05 (  3,  1, 44)  0.1799E-06 (  3,  1, 75)  0.4950E-08 (  4,  1, 75)


                                          ================================================
                                                         FROM TIME =   5440.0     TO    5450.0    

 
 SOLVING FOR HEAD 
 FLOW MODEL IS TRANSIENT
 FLOW MODEL CONTAINS CONSTANT-HEAD CELLS


 MAXIMUM STEPSIZE DURING WHICH ANY PARTICLE CANNOT MOVE MORE THAN ONE CELL
 =  6.277    (WHEN MIN. R.F.=1)  AT K=   4, I=   1, J=  48

 MAXIMUM STEPSIZE WHICH MEETS STABILITY CRITERION OF THE ADVECTION TERM
 (FOR PURE FINITE-DIFFERENCE OPTION, MIXELM=0) 
 =  3.766    (WHEN MIN. R.F.=1)  AT K=   2, I=   1, J=  43


 TOTAL NUMBER OF POINT SOURCES/SINKS PRESENT IN THE FLOW MODEL =    62

 MAXIMUM STEPSIZE WHICH MEETS STABILITY CRITERION OF THE SINK & SOURCE TERM
 =  3040.    (WHEN MIN. R.F.=1)  AT K=   2, I=   1, J= 120

 MAXIMUM STEPSIZE WHICH MEETS STABILITY CRITERION OF THE DISPERSION TERM
 =  20.29    (WHEN MIN. R.F.=1)  AT K=   1, I=   1, J=  31


     1 CALLS TO GCG PACKAGE FOR TRANSPORT TIME STEP   1 IN FLOW TIME STEP 545 STRESS PERIOD   1
     6 TOTAL ITERATIONS

 NO OUTPUT CONTROL FOR STRESS PERIOD    1   TIME STEP 545
 
 SOLVING FOR HEAD 
 FLOW MODEL IS TRANSIENT
 FLOW MODEL CONTAINS CONSTANT-HEAD CELLS


 MAXIMUM STEPSIZE DURING WHICH ANY PARTICLE CANNOT MOVE MORE THAN ONE CELL
 =  6.326    (WHEN MIN. R.F.=1)  AT K=   4, I=   1, J=  48

 MAXIMUM STEPSIZE WHICH MEETS STABILITY CRITERION OF THE ADVECTION TERM
 (FOR PURE FINITE-DIFFERENCE OPTION, MIXELM=0) 
 =  3.819    (WHEN MIN. R.F.=1)  AT K=   2, I=   1, J=  43


 TOTAL NUMBER OF POINT SOURCES/SINKS PRESENT IN THE FLOW MODEL =    62

 MAXIMUM STEPSIZE WHICH MEETS STABILITY CRITERION OF THE SINK & SOURCE TERM
 =  1859.    (WHEN MIN. R.F.=1)  AT K=   2, I=   1, J= 120

 MAXIMUM STEPSIZE WHICH MEETS STABILITY CRITERION OF THE DISPERSION TERM
 =  20.29    (WHEN MIN. R.F.=1)  AT K=   1, I=   1, J=  31
     1 CALLS TO GCG PACKAGE FOR TRANSPORT TIME STEP   2 IN FLOW TIME STEP 545 STRESS PERIOD   1
     6 TOTAL ITERATIONS
 
 SOLVING FOR HEAD 
 FLOW MODEL IS TRANSIENT
 FLOW MODEL CONTAINS CONSTANT-HEAD CELLS


 MAXIMUM STEPSIZE DURING WHICH ANY PARTICLE CANNOT MOVE MORE THAN ONE CELL
 =  6.379    (WHEN MIN. R.F.=1)  AT K=   5, I=   1, J=  48

 MAXIMUM STEPSIZE WHICH MEETS STABILITY CRITERION OF THE ADVECTION TERM
 (FOR PURE FINITE-DIFFERENCE OPTION, MIXELM=0) 
 =  3.998    (WHEN MIN. R.F.=1)  AT K=   2, I=   1, J=  43


 TOTAL NUMBER OF POINT SOURCES/SINKS PRESENT IN THE FLOW MODEL =    62

 MAXIMUM STEPSIZE WHICH MEETS STABILITY CRITERION OF THE SINK & SOURCE TERM
 =  1669.    (WHEN MIN. R.F.=1)  AT K=   2, I=   1, J= 120

 MAXIMUM STEPSIZE WHICH MEETS STABILITY CRITERION OF THE DISPERSION TERM
 =  20.29    (WHEN MIN. R.F.=1)  AT K=   1, I=   1, J=  31
     1 CALLS TO GCG PACKAGE FOR TRANSPORT TIME STEP   3 IN FLOW TIME STEP 545 STRESS PERIOD   1
     6 TOTAL ITERATIONS
 
 SOLVING FOR HEAD 
 FLOW MODEL IS TRANSIENT
 FLOW MODEL CONTAINS CONSTANT-HEAD CELLS


 MAXIMUM STEPSIZE DURING WHICH ANY PARTICLE CANNOT MOVE MORE THAN ONE CELL
 =  6.436    (WHEN MIN. R.F.=1)  AT K=   5, I=   1, J=  48

 MAXIMUM STEPSIZE WHICH MEETS STABILITY CRITERION OF THE ADVECTION TERM
 (FOR PURE FINITE-DIFFERENCE OPTION, MIXELM=0) 
 =  4.303    (WHEN MIN. R.F.=1)  AT K=   2, I=   1, J=  44


 TOTAL NUMBER OF POINT SOURCES/SINKS PRESENT IN THE FLOW MODEL =    62

 MAXIMUM STEPSIZE WHICH MEETS STABILITY CRITERION OF THE SINK & SOURCE TERM
 =  1185.    (WHEN MIN. R.F.=1)  AT K=   2, I=   1, J= 120

 MAXIMUM STEPSIZE WHICH MEETS STABILITY CRITERION OF THE DISPERSION TERM
 =  20.29    (WHEN MIN. R.F.=1)  AT K=   1, I=   1, J=  31
     1 CALLS TO GCG PACKAGE FOR TRANSPORT TIME STEP   4 IN FLOW TIME STEP 545 STRESS PERIOD   1
     5 TOTAL ITERATIONS
  MAXIMUM CONCENTRATION CHANGES FOR EACH ITERATION:
  MAX. CHANGE LAYER,ROW,COL MAX. CHANGE LAYER,ROW,COL MAX. CHANGE LAYER,ROW,COL MAX. CHANGE LAYER,ROW,COL MAX. CHANGE LAYER,ROW,COL
 ------------------------------------------------------------------------------------------------------------------------------------
   0.1809E-01 (  2,  1, 77)  0.3736E-03 (  2,  1, 44)  0.1294E-04 (  2,  1, 78)  0.4936E-06 (  3,  1, 78)  0.1148E-07 (  3,  1, 33)


                                          ================================================
                                                         FROM TIME =   5450.0     TO    5460.0    

 
 SOLVING FOR HEAD 
 FLOW MODEL IS TRANSIENT
 FLOW MODEL CONTAINS CONSTANT-HEAD CELLS


 MAXIMUM STEPSIZE DURING WHICH ANY PARTICLE CANNOT MOVE MORE THAN ONE CELL
 =  6.481    (WHEN MIN. R.F.=1)  AT K=   5, I=   1, J=  48

 MAXIMUM STEPSIZE WHICH MEETS STABILITY CRITERION OF THE ADVECTION TERM
 (FOR PURE FINITE-DIFFERENCE OPTION, MIXELM=0) 
 =  4.155    (WHEN MIN. R.F.=1)  AT K=   2, I=   1, J=  44


 TOTAL NUMBER OF POINT SOURCES/SINKS PRESENT IN THE FLOW MODEL =    62

 MAXIMUM STEPSIZE WHICH MEETS STABILITY CRITERION OF THE SINK & SOURCE TERM
 =  1148.    (WHEN MIN. R.F.=1)  AT K=   2, I=   1, J= 120

 MAXIMUM STEPSIZE WHICH MEETS STABILITY CRITERION OF THE DISPERSION TERM
 =  20.29    (WHEN MIN. R.F.=1)  AT K=   1, I=   1, J=  31


     1 CALLS TO GCG PACKAGE FOR TRANSPORT TIME STEP   1 IN FLOW TIME STEP 546 STRESS PERIOD   1
     6 TOTAL ITERATIONS

 NO OUTPUT CONTROL FOR STRESS PERIOD    1   TIME STEP 546
 
 SOLVING FOR HEAD 
 FLOW MODEL IS TRANSIENT
 FLOW MODEL CONTAINS CONSTANT-HEAD CELLS


 MAXIMUM STEPSIZE DURING WHICH ANY PARTICLE CANNOT MOVE MORE THAN ONE CELL
 =  6.589    (WHEN MIN. R.F.=1)  AT K=   5, I=   1, J=  48

 MAXIMUM STEPSIZE WHICH MEETS STABILITY CRITERION OF THE ADVECTION TERM
 (FOR PURE FINITE-DIFFERENCE OPTION, MIXELM=0) 
 =  3.957    (WHEN MIN. R.F.=1)  AT K=   2, I=   1, J=  44


 TOTAL NUMBER OF POINT SOURCES/SINKS PRESENT IN THE FLOW MODEL =    62

 MAXIMUM STEPSIZE WHICH MEETS STABILITY CRITERION OF THE SINK & SOURCE TERM
 =  859.0    (WHEN MIN. R.F.=1)  AT K=   2, I=   1, J= 120

 MAXIMUM STEPSIZE WHICH MEETS STABILITY CRITERION OF THE DISPERSION TERM
 =  20.29    (WHEN MIN. R.F.=1)  AT K=   1, I=   1, J=  31
     1 CALLS TO GCG PACKAGE FOR TRANSPORT TIME STEP   2 IN FLOW TIME STEP 546 STRESS PERIOD   1
     6 TOTAL ITERATIONS
 
 SOLVING FOR HEAD 
 FLOW MODEL IS TRANSIENT
 FLOW MODEL CONTAINS CONSTANT-HEAD CELLS


 MAXIMUM STEPSIZE DURING WHICH ANY PARTICLE CANNOT MOVE MORE THAN ONE CELL
 =  6.442    (WHEN MIN. R.F.=1)  AT K=   4, I=   1, J=  74

 MAXIMUM STEPSIZE WHICH MEETS STABILITY CRITERION OF THE ADVECTION TERM
 (FOR PURE FINITE-DIFFERENCE OPTION, MIXELM=0) 
 =  3.940    (WHEN MIN. R.F.=1)  AT K=   2, I=   1, J=  44


 TOTAL NUMBER OF POINT SOURCES/SINKS PRESENT IN THE FLOW MODEL =    62

 MAXIMUM STEPSIZE WHICH MEETS STABILITY CRITERION OF THE SINK & SOURCE TERM
 =  845.4    (WHEN MIN. R.F.=1)  AT K=   2, I=   1, J= 120

 MAXIMUM STEPSIZE WHICH MEETS STABILITY CRITERION OF THE DISPERSION TERM
 =  20.29    (WHEN MIN. R.F.=1)  AT K=   1, I=   1, J=  31
     1 CALLS TO GCG PACKAGE FOR TRANSPORT TIME STEP   3 IN FLOW TIME STEP 546 STRESS PERIOD   1
     6 TOTAL ITERATIONS
 
 SOLVING FOR HEAD 
 FLOW MODEL IS TRANSIENT
 FLOW MODEL CONTAINS CONSTANT-HEAD CELLS


 MAXIMUM STEPSIZE DURING WHICH ANY PARTICLE CANNOT MOVE MORE THAN ONE CELL
 =  6.022    (WHEN MIN. R.F.=1)  AT K=   4, I=   1, J=  74

 MAXIMUM STEPSIZE WHICH MEETS STABILITY CRITERION OF THE ADVECTION TERM
 (FOR PURE FINITE-DIFFERENCE OPTION, MIXELM=0) 
 =  4.041    (WHEN MIN. R.F.=1)  AT K=   2, I=   1, J=  44


 TOTAL NUMBER OF POINT SOURCES/SINKS PRESENT IN THE FLOW MODEL =    62

 MAXIMUM STEPSIZE WHICH MEETS STABILITY CRITERION OF THE SINK & SOURCE TERM
 =  736.6    (WHEN MIN. R.F.=1)  AT K=   2, I=   1, J= 120

 MAXIMUM STEPSIZE WHICH MEETS STABILITY CRITERION OF THE DISPERSION TERM
 =  20.29    (WHEN MIN. R.F.=1)  AT K=   1, I=   1, J=  31
     1 CALLS TO GCG PACKAGE FOR TRANSPORT TIME STEP   4 IN FLOW TIME STEP 546 STRESS PERIOD   1
     4 TOTAL ITERATIONS
  MAXIMUM CONCENTRATION CHANGES FOR EACH ITERATION:
  MAX. CHANGE LAYER,ROW,COL MAX. CHANGE LAYER,ROW,COL MAX. CHANGE LAYER,ROW,COL MAX. CHANGE LAYER,ROW,COL MAX. CHANGE LAYER,ROW,COL
 ------------------------------------------------------------------------------------------------------------------------------------
   0.8684E-02 (  2,  1, 83)  0.8960E-04 (  2,  1, 46)  0.1182E-05 (  2,  1, 77)  0.2146E-07 (  3,  1, 77)


                                          ================================================
                                                         FROM TIME =   5460.0     TO    5470.0    

 
 SOLVING FOR HEAD 
 FLOW MODEL IS TRANSIENT
 FLOW MODEL CONTAINS CONSTANT-HEAD CELLS


 MAXIMUM STEPSIZE DURING WHICH ANY PARTICLE CANNOT MOVE MORE THAN ONE CELL
 =  5.931    (WHEN MIN. R.F.=1)  AT K=   4, I=   1, J=  74

 MAXIMUM STEPSIZE WHICH MEETS STABILITY CRITERION OF THE ADVECTION TERM
 (FOR PURE FINITE-DIFFERENCE OPTION, MIXELM=0) 
 =  4.086    (WHEN MIN. R.F.=1)  AT K=   2, I=   1, J=  44


 TOTAL NUMBER OF POINT SOURCES/SINKS PRESENT IN THE FLOW MODEL =    62

 MAXIMUM STEPSIZE WHICH MEETS STABILITY CRITERION OF THE SINK & SOURCE TERM
 =  840.0    (WHEN MIN. R.F.=1)  AT K=   2, I=   1, J= 120

 MAXIMUM STEPSIZE WHICH MEETS STABILITY CRITERION OF THE DISPERSION TERM
 =  20.29    (WHEN MIN. R.F.=1)  AT K=   1, I=   1, J=  31


     1 CALLS TO GCG PACKAGE FOR TRANSPORT TIME STEP   1 IN FLOW TIME STEP 547 STRESS PERIOD   1
     6 TOTAL ITERATIONS

 NO OUTPUT CONTROL FOR STRESS PERIOD    1   TIME STEP 547
 
 SOLVING FOR HEAD 
 FLOW MODEL IS TRANSIENT
 FLOW MODEL CONTAINS CONSTANT-HEAD CELLS


 MAXIMUM STEPSIZE DURING WHICH ANY PARTICLE CANNOT MOVE MORE THAN ONE CELL
 =  5.589    (WHEN MIN. R.F.=1)  AT K=   4, I=   1, J=  74

 MAXIMUM STEPSIZE WHICH MEETS STABILITY CRITERION OF THE ADVECTION TERM
 (FOR PURE FINITE-DIFFERENCE OPTION, MIXELM=0) 
 =  4.185    (WHEN MIN. R.F.=1)  AT K=   2, I=   1, J=  81


 TOTAL NUMBER OF POINT SOURCES/SINKS PRESENT IN THE FLOW MODEL =    62

 MAXIMUM STEPSIZE WHICH MEETS STABILITY CRITERION OF THE SINK & SOURCE TERM
 =  657.6    (WHEN MIN. R.F.=1)  AT K=   2, I=   1, J= 120

 MAXIMUM STEPSIZE WHICH MEETS STABILITY CRITERION OF THE DISPERSION TERM
 =  20.29    (WHEN MIN. R.F.=1)  AT K=   1, I=   1, J=  31
     1 CALLS TO GCG PACKAGE FOR TRANSPORT TIME STEP   2 IN FLOW TIME STEP 547 STRESS PERIOD   1
     6 TOTAL ITERATIONS
 
 SOLVING FOR HEAD 
 FLOW MODEL IS TRANSIENT
 FLOW MODEL CONTAINS CONSTANT-HEAD CELLS


 MAXIMUM STEPSIZE DURING WHICH ANY PARTICLE CANNOT MOVE MORE THAN ONE CELL
 =  5.324    (WHEN MIN. R.F.=1)  AT K=   4, I=   1, J=  74

 MAXIMUM STEPSIZE WHICH MEETS STABILITY CRITERION OF THE ADVECTION TERM
 (FOR PURE FINITE-DIFFERENCE OPTION, MIXELM=0) 
 =  3.938    (WHEN MIN. R.F.=1)  AT K=   2, I=   1, J=  81


 TOTAL NUMBER OF POINT SOURCES/SINKS PRESENT IN THE FLOW MODEL =    62

 MAXIMUM STEPSIZE WHICH MEETS STABILITY CRITERION OF THE SINK & SOURCE TERM
 =  616.2    (WHEN MIN. R.F.=1)  AT K=   2, I=   1, J= 120

 MAXIMUM STEPSIZE WHICH MEETS STABILITY CRITERION OF THE DISPERSION TERM
 =  20.29    (WHEN MIN. R.F.=1)  AT K=   1, I=   1, J=  31
     1 CALLS TO GCG PACKAGE FOR TRANSPORT TIME STEP   3 IN FLOW TIME STEP 547 STRESS PERIOD   1
     6 TOTAL ITERATIONS
 
 SOLVING FOR HEAD 
 FLOW MODEL IS TRANSIENT
 FLOW MODEL CONTAINS CONSTANT-HEAD CELLS


 MAXIMUM STEPSIZE DURING WHICH ANY PARTICLE CANNOT MOVE MORE THAN ONE CELL
 =  5.131    (WHEN MIN. R.F.=1)  AT K=   4, I=   1, J=  74

 MAXIMUM STEPSIZE WHICH MEETS STABILITY CRITERION OF THE ADVECTION TERM
 (FOR PURE FINITE-DIFFERENCE OPTION, MIXELM=0) 
 =  3.878    (WHEN MIN. R.F.=1)  AT K=   2, I=   1, J=  81


 TOTAL NUMBER OF POINT SOURCES/SINKS PRESENT IN THE FLOW MODEL =    62

 MAXIMUM STEPSIZE WHICH MEETS STABILITY CRITERION OF THE SINK & SOURCE TERM
 =  518.3    (WHEN MIN. R.F.=1)  AT K=   2, I=   1, J= 120

 MAXIMUM STEPSIZE WHICH MEETS STABILITY CRITERION OF THE DISPERSION TERM
 =  20.29    (WHEN MIN. R.F.=1)  AT K=   1, I=   1, J=  31
     1 CALLS TO GCG PACKAGE FOR TRANSPORT TIME STEP   4 IN FLOW TIME STEP 547 STRESS PERIOD   1
     3 TOTAL ITERATIONS



 >>>>>>>>>>>>>>>>>>>>>>>>>>>>>>>>>>>>>>>>>>>>>>>>>>>>>>>FOR COMPONENT NO. 01<<<<<<<<<<<<<<<<<<<<<<<<<<<<<<<<<<<<<<<<<<<<<<<<<<<<<<<


                                            -------------------------------------------
                                                      TRANSPORT STEP NO.    4
                                            -------------------------------------------

 TOTAL ELAPSED TIME SINCE BEGINNING OF SIMULATION =   5469.300    D   
 .....................................................................

                     CUMULATIVE MASS BUDGETS AT END OF TRANSPORT STEP    4, TIME STEP  547, STRESS PERIOD    1
                     ------------------------------------------------------------------------------------------

                                                             IN                           OUT
                                                      ----------------             ----------------
                               CONSTANT CONCENTRATION:    3215892.                   -2295013.    
                                        CONSTANT HEAD:    0.000000                   -754.6628    
                               MASS STOR (FLOW MODEL):    370.5795                   -566.1447    
                                MASS STORAGE (SOLUTE):    5623888.                   -6543817.    
                            ---------------------------------------------------------------------------
                                              [TOTAL]:    8840150.     KG            -8840150.     KG  

                                                          NET (IN - OUT):  -0.1586726E-01
                                                   DISCREPANCY (PERCENT):  -0.1794908E-06
 
 SOLVING FOR HEAD 
 FLOW MODEL IS TRANSIENT
 FLOW MODEL CONTAINS CONSTANT-HEAD CELLS


 MAXIMUM STEPSIZE DURING WHICH ANY PARTICLE CANNOT MOVE MORE THAN ONE CELL
 =  5.128    (WHEN MIN. R.F.=1)  AT K=   4, I=   1, J=  74

 MAXIMUM STEPSIZE WHICH MEETS STABILITY CRITERION OF THE ADVECTION TERM
 (FOR PURE FINITE-DIFFERENCE OPTION, MIXELM=0) 
 =  3.881    (WHEN MIN. R.F.=1)  AT K=   2, I=   1, J=  81


 TOTAL NUMBER OF POINT SOURCES/SINKS PRESENT IN THE FLOW MODEL =    62

 MAXIMUM STEPSIZE WHICH MEETS STABILITY CRITERION OF THE SINK & SOURCE TERM
 =  579.1    (WHEN MIN. R.F.=1)  AT K=   2, I=   1, J= 120

 MAXIMUM STEPSIZE WHICH MEETS STABILITY CRITERION OF THE DISPERSION TERM
 =  20.29    (WHEN MIN. R.F.=1)  AT K=   1, I=   1, J=  31
     1 CALLS TO GCG PACKAGE FOR TRANSPORT TIME STEP   5 IN FLOW TIME STEP 547 STRESS PERIOD   1
     4 TOTAL ITERATIONS
  MAXIMUM CONCENTRATION CHANGES FOR EACH ITERATION:
  MAX. CHANGE LAYER,ROW,COL MAX. CHANGE LAYER,ROW,COL MAX. CHANGE LAYER,ROW,COL MAX. CHANGE LAYER,ROW,COL MAX. CHANGE LAYER,ROW,COL
 ------------------------------------------------------------------------------------------------------------------------------------
   0.9030E-02 (  2,  1, 82)  0.1144E-03 (  2,  1, 82)  0.1687E-05 (  2,  1, 83)  0.2638E-07 (  3,  1, 83)


                                          ================================================
                                                         FROM TIME =   5470.0     TO    5480.0    

 
 SOLVING FOR HEAD 
 FLOW MODEL IS TRANSIENT
 FLOW MODEL CONTAINS CONSTANT-HEAD CELLS


 MAXIMUM STEPSIZE DURING WHICH ANY PARTICLE CANNOT MOVE MORE THAN ONE CELL
 =  5.094    (WHEN MIN. R.F.=1)  AT K=   4, I=   1, J=  74

 MAXIMUM STEPSIZE WHICH MEETS STABILITY CRITERION OF THE ADVECTION TERM
 (FOR PURE FINITE-DIFFERENCE OPTION, MIXELM=0) 
 =  3.921    (WHEN MIN. R.F.=1)  AT K=   2, I=   1, J=  81


 TOTAL NUMBER OF POINT SOURCES/SINKS PRESENT IN THE FLOW MODEL =    62

 MAXIMUM STEPSIZE WHICH MEETS STABILITY CRITERION OF THE SINK & SOURCE TERM
 =  636.6    (WHEN MIN. R.F.=1)  AT K=   2, I=   1, J= 120

 MAXIMUM STEPSIZE WHICH MEETS STABILITY CRITERION OF THE DISPERSION TERM
 =  20.29    (WHEN MIN. R.F.=1)  AT K=   1, I=   1, J=  31


     1 CALLS TO GCG PACKAGE FOR TRANSPORT TIME STEP   1 IN FLOW TIME STEP 548 STRESS PERIOD   1
     6 TOTAL ITERATIONS

 NO OUTPUT CONTROL FOR STRESS PERIOD    1   TIME STEP 548
 
 SOLVING FOR HEAD 
 FLOW MODEL IS TRANSIENT
 FLOW MODEL CONTAINS CONSTANT-HEAD CELLS


 MAXIMUM STEPSIZE DURING WHICH ANY PARTICLE CANNOT MOVE MORE THAN ONE CELL
 =  4.996    (WHEN MIN. R.F.=1)  AT K=   4, I=   1, J=  74

 MAXIMUM STEPSIZE WHICH MEETS STABILITY CRITERION OF THE ADVECTION TERM
 (FOR PURE FINITE-DIFFERENCE OPTION, MIXELM=0) 
 =  4.087    (WHEN MIN. R.F.=1)  AT K=   2, I=   1, J=  80


 TOTAL NUMBER OF POINT SOURCES/SINKS PRESENT IN THE FLOW MODEL =    62

 MAXIMUM STEPSIZE WHICH MEETS STABILITY CRITERION OF THE SINK & SOURCE TERM
 =  517.9    (WHEN MIN. R.F.=1)  AT K=   2, I=   1, J= 120

 MAXIMUM STEPSIZE WHICH MEETS STABILITY CRITERION OF THE DISPERSION TERM
 =  20.29    (WHEN MIN. R.F.=1)  AT K=   1, I=   1, J=  31
     1 CALLS TO GCG PACKAGE FOR TRANSPORT TIME STEP   2 IN FLOW TIME STEP 548 STRESS PERIOD   1
     6 TOTAL ITERATIONS
 
 SOLVING FOR HEAD 
 FLOW MODEL IS TRANSIENT
 FLOW MODEL CONTAINS CONSTANT-HEAD CELLS


 MAXIMUM STEPSIZE DURING WHICH ANY PARTICLE CANNOT MOVE MORE THAN ONE CELL
 =  4.960    (WHEN MIN. R.F.=1)  AT K=   4, I=   1, J=  74

 MAXIMUM STEPSIZE WHICH MEETS STABILITY CRITERION OF THE ADVECTION TERM
 (FOR PURE FINITE-DIFFERENCE OPTION, MIXELM=0) 
 =  3.730    (WHEN MIN. R.F.=1)  AT K=   2, I=   1, J=  80


 TOTAL NUMBER OF POINT SOURCES/SINKS PRESENT IN THE FLOW MODEL =    62

 MAXIMUM STEPSIZE WHICH MEETS STABILITY CRITERION OF THE SINK & SOURCE TERM
 =  465.1    (WHEN MIN. R.F.=1)  AT K=   2, I=   1, J= 120

 MAXIMUM STEPSIZE WHICH MEETS STABILITY CRITERION OF THE DISPERSION TERM
 =  20.29    (WHEN MIN. R.F.=1)  AT K=   1, I=   1, J=  31
     1 CALLS TO GCG PACKAGE FOR TRANSPORT TIME STEP   3 IN FLOW TIME STEP 548 STRESS PERIOD   1
     6 TOTAL ITERATIONS
 
 SOLVING FOR HEAD 
 FLOW MODEL IS TRANSIENT
 FLOW MODEL CONTAINS CONSTANT-HEAD CELLS


 MAXIMUM STEPSIZE DURING WHICH ANY PARTICLE CANNOT MOVE MORE THAN ONE CELL
 =  4.976    (WHEN MIN. R.F.=1)  AT K=   4, I=   1, J=  74

 MAXIMUM STEPSIZE WHICH MEETS STABILITY CRITERION OF THE ADVECTION TERM
 (FOR PURE FINITE-DIFFERENCE OPTION, MIXELM=0) 
 =  3.593    (WHEN MIN. R.F.=1)  AT K=   2, I=   1, J=  80


 TOTAL NUMBER OF POINT SOURCES/SINKS PRESENT IN THE FLOW MODEL =    62

 MAXIMUM STEPSIZE WHICH MEETS STABILITY CRITERION OF THE SINK & SOURCE TERM
 =  427.1    (WHEN MIN. R.F.=1)  AT K=   2, I=   1, J= 120

 MAXIMUM STEPSIZE WHICH MEETS STABILITY CRITERION OF THE DISPERSION TERM
 =  20.29    (WHEN MIN. R.F.=1)  AT K=   1, I=   1, J=  31
     1 CALLS TO GCG PACKAGE FOR TRANSPORT TIME STEP   4 IN FLOW TIME STEP 548 STRESS PERIOD   1
     5 TOTAL ITERATIONS
  MAXIMUM CONCENTRATION CHANGES FOR EACH ITERATION:
  MAX. CHANGE LAYER,ROW,COL MAX. CHANGE LAYER,ROW,COL MAX. CHANGE LAYER,ROW,COL MAX. CHANGE LAYER,ROW,COL MAX. CHANGE LAYER,ROW,COL
 ------------------------------------------------------------------------------------------------------------------------------------
   0.1239E-01 (  2,  1, 81)  0.2228E-03 (  2,  1, 81)  0.5786E-05 (  3,  1, 79)  0.1554E-06 (  3,  1, 77)  0.3299E-08 (  4,  1, 77)


                                          ================================================
                                                         FROM TIME =   5480.0     TO    5490.0    

 
 SOLVING FOR HEAD 
 FLOW MODEL IS TRANSIENT
 FLOW MODEL CONTAINS CONSTANT-HEAD CELLS


 MAXIMUM STEPSIZE DURING WHICH ANY PARTICLE CANNOT MOVE MORE THAN ONE CELL
 =  4.995    (WHEN MIN. R.F.=1)  AT K=   4, I=   1, J=  74

 MAXIMUM STEPSIZE WHICH MEETS STABILITY CRITERION OF THE ADVECTION TERM
 (FOR PURE FINITE-DIFFERENCE OPTION, MIXELM=0) 
 =  3.596    (WHEN MIN. R.F.=1)  AT K=   2, I=   1, J=  80


 TOTAL NUMBER OF POINT SOURCES/SINKS PRESENT IN THE FLOW MODEL =    62

 MAXIMUM STEPSIZE WHICH MEETS STABILITY CRITERION OF THE SINK & SOURCE TERM
 =  507.5    (WHEN MIN. R.F.=1)  AT K=   2, I=   1, J= 120

 MAXIMUM STEPSIZE WHICH MEETS STABILITY CRITERION OF THE DISPERSION TERM
 =  20.29    (WHEN MIN. R.F.=1)  AT K=   1, I=   1, J=  31


     1 CALLS TO GCG PACKAGE FOR TRANSPORT TIME STEP   1 IN FLOW TIME STEP 549 STRESS PERIOD   1
     6 TOTAL ITERATIONS

 NO OUTPUT CONTROL FOR STRESS PERIOD    1   TIME STEP 549
 
 SOLVING FOR HEAD 
 FLOW MODEL IS TRANSIENT
 FLOW MODEL CONTAINS CONSTANT-HEAD CELLS


 MAXIMUM STEPSIZE DURING WHICH ANY PARTICLE CANNOT MOVE MORE THAN ONE CELL
 =  5.067    (WHEN MIN. R.F.=1)  AT K=   5, I=   1, J=  74

 MAXIMUM STEPSIZE WHICH MEETS STABILITY CRITERION OF THE ADVECTION TERM
 (FOR PURE FINITE-DIFFERENCE OPTION, MIXELM=0) 
 =  3.713    (WHEN MIN. R.F.=1)  AT K=   2, I=   1, J=  80


 TOTAL NUMBER OF POINT SOURCES/SINKS PRESENT IN THE FLOW MODEL =    62

 MAXIMUM STEPSIZE WHICH MEETS STABILITY CRITERION OF THE SINK & SOURCE TERM
 =  430.7    (WHEN MIN. R.F.=1)  AT K=   2, I=   1, J= 120

 MAXIMUM STEPSIZE WHICH MEETS STABILITY CRITERION OF THE DISPERSION TERM
 =  20.29    (WHEN MIN. R.F.=1)  AT K=   1, I=   1, J=  31
     1 CALLS TO GCG PACKAGE FOR TRANSPORT TIME STEP   2 IN FLOW TIME STEP 549 STRESS PERIOD   1
     6 TOTAL ITERATIONS
 
 SOLVING FOR HEAD 
 FLOW MODEL IS TRANSIENT
 FLOW MODEL CONTAINS CONSTANT-HEAD CELLS


 MAXIMUM STEPSIZE DURING WHICH ANY PARTICLE CANNOT MOVE MORE THAN ONE CELL
 =  5.121    (WHEN MIN. R.F.=1)  AT K=   5, I=   1, J=  74

 MAXIMUM STEPSIZE WHICH MEETS STABILITY CRITERION OF THE ADVECTION TERM
 (FOR PURE FINITE-DIFFERENCE OPTION, MIXELM=0) 
 =  3.918    (WHEN MIN. R.F.=1)  AT K=   2, I=   1, J=  79


 TOTAL NUMBER OF POINT SOURCES/SINKS PRESENT IN THE FLOW MODEL =    62

 MAXIMUM STEPSIZE WHICH MEETS STABILITY CRITERION OF THE SINK & SOURCE TERM
 =  417.7    (WHEN MIN. R.F.=1)  AT K=   2, I=   1, J= 120

 MAXIMUM STEPSIZE WHICH MEETS STABILITY CRITERION OF THE DISPERSION TERM
 =  20.29    (WHEN MIN. R.F.=1)  AT K=   1, I=   1, J=  31
     1 CALLS TO GCG PACKAGE FOR TRANSPORT TIME STEP   3 IN FLOW TIME STEP 549 STRESS PERIOD   1
     6 TOTAL ITERATIONS
 
 SOLVING FOR HEAD 
 FLOW MODEL IS TRANSIENT
 FLOW MODEL CONTAINS CONSTANT-HEAD CELLS


 MAXIMUM STEPSIZE DURING WHICH ANY PARTICLE CANNOT MOVE MORE THAN ONE CELL
 =  5.213    (WHEN MIN. R.F.=1)  AT K=   5, I=   1, J=  74

 MAXIMUM STEPSIZE WHICH MEETS STABILITY CRITERION OF THE ADVECTION TERM
 (FOR PURE FINITE-DIFFERENCE OPTION, MIXELM=0) 
 =  3.649    (WHEN MIN. R.F.=1)  AT K=   2, I=   1, J=  79


 TOTAL NUMBER OF POINT SOURCES/SINKS PRESENT IN THE FLOW MODEL =    62

 MAXIMUM STEPSIZE WHICH MEETS STABILITY CRITERION OF THE SINK & SOURCE TERM
 =  408.0    (WHEN MIN. R.F.=1)  AT K=   2, I=   1, J= 120

 MAXIMUM STEPSIZE WHICH MEETS STABILITY CRITERION OF THE DISPERSION TERM
 =  20.29    (WHEN MIN. R.F.=1)  AT K=   1, I=   1, J=  31
     1 CALLS TO GCG PACKAGE FOR TRANSPORT TIME STEP   4 IN FLOW TIME STEP 549 STRESS PERIOD   1
     5 TOTAL ITERATIONS
  MAXIMUM CONCENTRATION CHANGES FOR EACH ITERATION:
  MAX. CHANGE LAYER,ROW,COL MAX. CHANGE LAYER,ROW,COL MAX. CHANGE LAYER,ROW,COL MAX. CHANGE LAYER,ROW,COL MAX. CHANGE LAYER,ROW,COL
 ------------------------------------------------------------------------------------------------------------------------------------
   0.2000E-01 (  2,  1, 81)  0.6196E-03 (  2,  1, 79)  0.2320E-04 (  2,  1, 76)  0.1451E-05 (  3,  1, 76)  0.4654E-07 (  4,  1, 76)


                                          ================================================
                                                         FROM TIME =   5490.0     TO    5500.0    

 
 SOLVING FOR HEAD 
 FLOW MODEL IS TRANSIENT
 FLOW MODEL CONTAINS CONSTANT-HEAD CELLS


 MAXIMUM STEPSIZE DURING WHICH ANY PARTICLE CANNOT MOVE MORE THAN ONE CELL
 =  5.296    (WHEN MIN. R.F.=1)  AT K=   5, I=   1, J=  74

 MAXIMUM STEPSIZE WHICH MEETS STABILITY CRITERION OF THE ADVECTION TERM
 (FOR PURE FINITE-DIFFERENCE OPTION, MIXELM=0) 
 =  3.573    (WHEN MIN. R.F.=1)  AT K=   2, I=   1, J=  79


 TOTAL NUMBER OF POINT SOURCES/SINKS PRESENT IN THE FLOW MODEL =    62

 MAXIMUM STEPSIZE WHICH MEETS STABILITY CRITERION OF THE SINK & SOURCE TERM
 =  411.8    (WHEN MIN. R.F.=1)  AT K=   2, I=   1, J= 120

 MAXIMUM STEPSIZE WHICH MEETS STABILITY CRITERION OF THE DISPERSION TERM
 =  20.29    (WHEN MIN. R.F.=1)  AT K=   1, I=   1, J=  31


     1 CALLS TO GCG PACKAGE FOR TRANSPORT TIME STEP   1 IN FLOW TIME STEP 550 STRESS PERIOD   1
     6 TOTAL ITERATIONS

 NO OUTPUT CONTROL FOR STRESS PERIOD    1   TIME STEP 550
 
 SOLVING FOR HEAD 
 FLOW MODEL IS TRANSIENT
 FLOW MODEL CONTAINS CONSTANT-HEAD CELLS


 MAXIMUM STEPSIZE DURING WHICH ANY PARTICLE CANNOT MOVE MORE THAN ONE CELL
 =  5.428    (WHEN MIN. R.F.=1)  AT K=   6, I=   1, J=  74

 MAXIMUM STEPSIZE WHICH MEETS STABILITY CRITERION OF THE ADVECTION TERM
 (FOR PURE FINITE-DIFFERENCE OPTION, MIXELM=0) 
 =  3.552    (WHEN MIN. R.F.=1)  AT K=   2, I=   1, J=  79


 TOTAL NUMBER OF POINT SOURCES/SINKS PRESENT IN THE FLOW MODEL =    62

 MAXIMUM STEPSIZE WHICH MEETS STABILITY CRITERION OF THE SINK & SOURCE TERM
 =  381.5    (WHEN MIN. R.F.=1)  AT K=   2, I=   1, J= 120

 MAXIMUM STEPSIZE WHICH MEETS STABILITY CRITERION OF THE DISPERSION TERM
 =  20.29    (WHEN MIN. R.F.=1)  AT K=   1, I=   1, J=  31
     1 CALLS TO GCG PACKAGE FOR TRANSPORT TIME STEP   2 IN FLOW TIME STEP 550 STRESS PERIOD   1
     6 TOTAL ITERATIONS
 
 SOLVING FOR HEAD 
 FLOW MODEL IS TRANSIENT
 FLOW MODEL CONTAINS CONSTANT-HEAD CELLS


 MAXIMUM STEPSIZE DURING WHICH ANY PARTICLE CANNOT MOVE MORE THAN ONE CELL
 =  5.538    (WHEN MIN. R.F.=1)  AT K=   6, I=   1, J=  74

 MAXIMUM STEPSIZE WHICH MEETS STABILITY CRITERION OF THE ADVECTION TERM
 (FOR PURE FINITE-DIFFERENCE OPTION, MIXELM=0) 
 =  3.657    (WHEN MIN. R.F.=1)  AT K=   2, I=   1, J=  79


 TOTAL NUMBER OF POINT SOURCES/SINKS PRESENT IN THE FLOW MODEL =    62

 MAXIMUM STEPSIZE WHICH MEETS STABILITY CRITERION OF THE SINK & SOURCE TERM
 =  374.5    (WHEN MIN. R.F.=1)  AT K=   2, I=   1, J= 120

 MAXIMUM STEPSIZE WHICH MEETS STABILITY CRITERION OF THE DISPERSION TERM
 =  20.29    (WHEN MIN. R.F.=1)  AT K=   1, I=   1, J=  31
     1 CALLS TO GCG PACKAGE FOR TRANSPORT TIME STEP   3 IN FLOW TIME STEP 550 STRESS PERIOD   1
     6 TOTAL ITERATIONS
 
 SOLVING FOR HEAD 
 FLOW MODEL IS TRANSIENT
 FLOW MODEL CONTAINS CONSTANT-HEAD CELLS


 MAXIMUM STEPSIZE DURING WHICH ANY PARTICLE CANNOT MOVE MORE THAN ONE CELL
 =  5.624    (WHEN MIN. R.F.=1)  AT K=   4, I=   1, J=  47

 MAXIMUM STEPSIZE WHICH MEETS STABILITY CRITERION OF THE ADVECTION TERM
 (FOR PURE FINITE-DIFFERENCE OPTION, MIXELM=0) 
 =  3.958    (WHEN MIN. R.F.=1)  AT K=   2, I=   1, J=  79


 TOTAL NUMBER OF POINT SOURCES/SINKS PRESENT IN THE FLOW MODEL =    62

 MAXIMUM STEPSIZE WHICH MEETS STABILITY CRITERION OF THE SINK & SOURCE TERM
 =  363.9    (WHEN MIN. R.F.=1)  AT K=   2, I=   1, J= 120

 MAXIMUM STEPSIZE WHICH MEETS STABILITY CRITERION OF THE DISPERSION TERM
 =  20.29    (WHEN MIN. R.F.=1)  AT K=   1, I=   1, J=  31
     1 CALLS TO GCG PACKAGE FOR TRANSPORT TIME STEP   4 IN FLOW TIME STEP 550 STRESS PERIOD   1
     5 TOTAL ITERATIONS
  MAXIMUM CONCENTRATION CHANGES FOR EACH ITERATION:
  MAX. CHANGE LAYER,ROW,COL MAX. CHANGE LAYER,ROW,COL MAX. CHANGE LAYER,ROW,COL MAX. CHANGE LAYER,ROW,COL MAX. CHANGE LAYER,ROW,COL
 ------------------------------------------------------------------------------------------------------------------------------------
   0.2314E-01 (  2,  1, 80)  0.7642E-03 (  2,  1, 78)  0.2984E-04 (  3,  1, 78)  0.1269E-05 (  3,  1, 76)  0.4209E-07 (  4,  1, 79)


                                          ================================================
                                                         FROM TIME =   5500.0     TO    5510.0    

 
 SOLVING FOR HEAD 
 FLOW MODEL IS TRANSIENT
 FLOW MODEL CONTAINS CONSTANT-HEAD CELLS


 MAXIMUM STEPSIZE DURING WHICH ANY PARTICLE CANNOT MOVE MORE THAN ONE CELL
 =  5.458    (WHEN MIN. R.F.=1)  AT K=   4, I=   1, J=  47

 MAXIMUM STEPSIZE WHICH MEETS STABILITY CRITERION OF THE ADVECTION TERM
 (FOR PURE FINITE-DIFFERENCE OPTION, MIXELM=0) 
 =  3.928    (WHEN MIN. R.F.=1)  AT K=   2, I=   1, J=  78


 TOTAL NUMBER OF POINT SOURCES/SINKS PRESENT IN THE FLOW MODEL =    62

 MAXIMUM STEPSIZE WHICH MEETS STABILITY CRITERION OF THE SINK & SOURCE TERM
 =  379.9    (WHEN MIN. R.F.=1)  AT K=   2, I=   1, J= 120

 MAXIMUM STEPSIZE WHICH MEETS STABILITY CRITERION OF THE DISPERSION TERM
 =  20.29    (WHEN MIN. R.F.=1)  AT K=   1, I=   1, J=  31


     1 CALLS TO GCG PACKAGE FOR TRANSPORT TIME STEP   1 IN FLOW TIME STEP 551 STRESS PERIOD   1
     6 TOTAL ITERATIONS

 NO OUTPUT CONTROL FOR STRESS PERIOD    1   TIME STEP 551
 
 SOLVING FOR HEAD 
 FLOW MODEL IS TRANSIENT
 FLOW MODEL CONTAINS CONSTANT-HEAD CELLS


 MAXIMUM STEPSIZE DURING WHICH ANY PARTICLE CANNOT MOVE MORE THAN ONE CELL
 =  5.292    (WHEN MIN. R.F.=1)  AT K=   4, I=   1, J=  47

 MAXIMUM STEPSIZE WHICH MEETS STABILITY CRITERION OF THE ADVECTION TERM
 (FOR PURE FINITE-DIFFERENCE OPTION, MIXELM=0) 
 =  3.697    (WHEN MIN. R.F.=1)  AT K=   2, I=   1, J=  78


 TOTAL NUMBER OF POINT SOURCES/SINKS PRESENT IN THE FLOW MODEL =    62

 MAXIMUM STEPSIZE WHICH MEETS STABILITY CRITERION OF THE SINK & SOURCE TERM
 =  355.4    (WHEN MIN. R.F.=1)  AT K=   2, I=   1, J= 120

 MAXIMUM STEPSIZE WHICH MEETS STABILITY CRITERION OF THE DISPERSION TERM
 =  20.29    (WHEN MIN. R.F.=1)  AT K=   1, I=   1, J=  31
     1 CALLS TO GCG PACKAGE FOR TRANSPORT TIME STEP   2 IN FLOW TIME STEP 551 STRESS PERIOD   1
     6 TOTAL ITERATIONS
 
 SOLVING FOR HEAD 
 FLOW MODEL IS TRANSIENT
 FLOW MODEL CONTAINS CONSTANT-HEAD CELLS


 MAXIMUM STEPSIZE DURING WHICH ANY PARTICLE CANNOT MOVE MORE THAN ONE CELL
 =  5.233    (WHEN MIN. R.F.=1)  AT K=   4, I=   1, J=  47

 MAXIMUM STEPSIZE WHICH MEETS STABILITY CRITERION OF THE ADVECTION TERM
 (FOR PURE FINITE-DIFFERENCE OPTION, MIXELM=0) 
 =  3.635    (WHEN MIN. R.F.=1)  AT K=   2, I=   1, J=  78


 TOTAL NUMBER OF POINT SOURCES/SINKS PRESENT IN THE FLOW MODEL =    62

 MAXIMUM STEPSIZE WHICH MEETS STABILITY CRITERION OF THE SINK & SOURCE TERM
 =  348.3    (WHEN MIN. R.F.=1)  AT K=   2, I=   1, J= 120

 MAXIMUM STEPSIZE WHICH MEETS STABILITY CRITERION OF THE DISPERSION TERM
 =  20.29    (WHEN MIN. R.F.=1)  AT K=   1, I=   1, J=  31
     1 CALLS TO GCG PACKAGE FOR TRANSPORT TIME STEP   3 IN FLOW TIME STEP 551 STRESS PERIOD   1
     6 TOTAL ITERATIONS
 
 SOLVING FOR HEAD 
 FLOW MODEL IS TRANSIENT
 FLOW MODEL CONTAINS CONSTANT-HEAD CELLS


 MAXIMUM STEPSIZE DURING WHICH ANY PARTICLE CANNOT MOVE MORE THAN ONE CELL
 =  5.260    (WHEN MIN. R.F.=1)  AT K=   4, I=   1, J=  47

 MAXIMUM STEPSIZE WHICH MEETS STABILITY CRITERION OF THE ADVECTION TERM
 (FOR PURE FINITE-DIFFERENCE OPTION, MIXELM=0) 
 =  3.694    (WHEN MIN. R.F.=1)  AT K=   2, I=   1, J=  78


 TOTAL NUMBER OF POINT SOURCES/SINKS PRESENT IN THE FLOW MODEL =    62

 MAXIMUM STEPSIZE WHICH MEETS STABILITY CRITERION OF THE SINK & SOURCE TERM
 =  345.3    (WHEN MIN. R.F.=1)  AT K=   2, I=   1, J= 120

 MAXIMUM STEPSIZE WHICH MEETS STABILITY CRITERION OF THE DISPERSION TERM
 =  20.29    (WHEN MIN. R.F.=1)  AT K=   1, I=   1, J=  31
     1 CALLS TO GCG PACKAGE FOR TRANSPORT TIME STEP   4 IN FLOW TIME STEP 551 STRESS PERIOD   1
     5 TOTAL ITERATIONS
  MAXIMUM CONCENTRATION CHANGES FOR EACH ITERATION:
  MAX. CHANGE LAYER,ROW,COL MAX. CHANGE LAYER,ROW,COL MAX. CHANGE LAYER,ROW,COL MAX. CHANGE LAYER,ROW,COL MAX. CHANGE LAYER,ROW,COL
 ------------------------------------------------------------------------------------------------------------------------------------
   0.1644E-01 (  2,  1, 79)  0.3276E-03 (  2,  1, 79)  0.8750E-05 (  2,  1, 80)  0.2803E-06 (  3,  1, 80)  0.7503E-08 (  4,  1, 79)


                                          ================================================
                                                         FROM TIME =   5510.0     TO    5520.0    

 
 SOLVING FOR HEAD 
 FLOW MODEL IS TRANSIENT
 FLOW MODEL CONTAINS CONSTANT-HEAD CELLS


 MAXIMUM STEPSIZE DURING WHICH ANY PARTICLE CANNOT MOVE MORE THAN ONE CELL
 =  5.301    (WHEN MIN. R.F.=1)  AT K=   4, I=   1, J=  47

 MAXIMUM STEPSIZE WHICH MEETS STABILITY CRITERION OF THE ADVECTION TERM
 (FOR PURE FINITE-DIFFERENCE OPTION, MIXELM=0) 
 =  3.778    (WHEN MIN. R.F.=1)  AT K=   2, I=   1, J=  78


 TOTAL NUMBER OF POINT SOURCES/SINKS PRESENT IN THE FLOW MODEL =    62

 MAXIMUM STEPSIZE WHICH MEETS STABILITY CRITERION OF THE SINK & SOURCE TERM
 =  376.5    (WHEN MIN. R.F.=1)  AT K=   2, I=   1, J= 120

 MAXIMUM STEPSIZE WHICH MEETS STABILITY CRITERION OF THE DISPERSION TERM
 =  20.29    (WHEN MIN. R.F.=1)  AT K=   1, I=   1, J=  31


     1 CALLS TO GCG PACKAGE FOR TRANSPORT TIME STEP   1 IN FLOW TIME STEP 552 STRESS PERIOD   1
     6 TOTAL ITERATIONS

 NO OUTPUT CONTROL FOR STRESS PERIOD    1   TIME STEP 552
 
 SOLVING FOR HEAD 
 FLOW MODEL IS TRANSIENT
 FLOW MODEL CONTAINS CONSTANT-HEAD CELLS


 MAXIMUM STEPSIZE DURING WHICH ANY PARTICLE CANNOT MOVE MORE THAN ONE CELL
 =  5.364    (WHEN MIN. R.F.=1)  AT K=   5, I=   1, J=  47

 MAXIMUM STEPSIZE WHICH MEETS STABILITY CRITERION OF THE ADVECTION TERM
 (FOR PURE FINITE-DIFFERENCE OPTION, MIXELM=0) 
 =  3.782    (WHEN MIN. R.F.=1)  AT K=   2, I=   1, J=  41


 TOTAL NUMBER OF POINT SOURCES/SINKS PRESENT IN THE FLOW MODEL =    62

 MAXIMUM STEPSIZE WHICH MEETS STABILITY CRITERION OF THE SINK & SOURCE TERM
 =  346.8    (WHEN MIN. R.F.=1)  AT K=   2, I=   1, J= 120

 MAXIMUM STEPSIZE WHICH MEETS STABILITY CRITERION OF THE DISPERSION TERM
 =  20.29    (WHEN MIN. R.F.=1)  AT K=   1, I=   1, J=  31
     1 CALLS TO GCG PACKAGE FOR TRANSPORT TIME STEP   2 IN FLOW TIME STEP 552 STRESS PERIOD   1
     6 TOTAL ITERATIONS
 
 SOLVING FOR HEAD 
 FLOW MODEL IS TRANSIENT
 FLOW MODEL CONTAINS CONSTANT-HEAD CELLS


 MAXIMUM STEPSIZE DURING WHICH ANY PARTICLE CANNOT MOVE MORE THAN ONE CELL
 =  5.448    (WHEN MIN. R.F.=1)  AT K=   5, I=   1, J=  47

 MAXIMUM STEPSIZE WHICH MEETS STABILITY CRITERION OF THE ADVECTION TERM
 (FOR PURE FINITE-DIFFERENCE OPTION, MIXELM=0) 
 =  3.894    (WHEN MIN. R.F.=1)  AT K=   2, I=   1, J=  41


 TOTAL NUMBER OF POINT SOURCES/SINKS PRESENT IN THE FLOW MODEL =    62

 MAXIMUM STEPSIZE WHICH MEETS STABILITY CRITERION OF THE SINK & SOURCE TERM
 =  347.2    (WHEN MIN. R.F.=1)  AT K=   2, I=   1, J= 120

 MAXIMUM STEPSIZE WHICH MEETS STABILITY CRITERION OF THE DISPERSION TERM
 =  20.29    (WHEN MIN. R.F.=1)  AT K=   1, I=   1, J=  31
     1 CALLS TO GCG PACKAGE FOR TRANSPORT TIME STEP   3 IN FLOW TIME STEP 552 STRESS PERIOD   1
     6 TOTAL ITERATIONS
 
 SOLVING FOR HEAD 
 FLOW MODEL IS TRANSIENT
 FLOW MODEL CONTAINS CONSTANT-HEAD CELLS


 MAXIMUM STEPSIZE DURING WHICH ANY PARTICLE CANNOT MOVE MORE THAN ONE CELL
 =  5.577    (WHEN MIN. R.F.=1)  AT K=   5, I=   1, J=  47

 MAXIMUM STEPSIZE WHICH MEETS STABILITY CRITERION OF THE ADVECTION TERM
 (FOR PURE FINITE-DIFFERENCE OPTION, MIXELM=0) 
 =  3.879    (WHEN MIN. R.F.=1)  AT K=   2, I=   1, J=  77


 TOTAL NUMBER OF POINT SOURCES/SINKS PRESENT IN THE FLOW MODEL =    62

 MAXIMUM STEPSIZE WHICH MEETS STABILITY CRITERION OF THE SINK & SOURCE TERM
 =  340.1    (WHEN MIN. R.F.=1)  AT K=   2, I=   1, J= 120

 MAXIMUM STEPSIZE WHICH MEETS STABILITY CRITERION OF THE DISPERSION TERM
 =  20.29    (WHEN MIN. R.F.=1)  AT K=   1, I=   1, J=  31
     1 CALLS TO GCG PACKAGE FOR TRANSPORT TIME STEP   4 IN FLOW TIME STEP 552 STRESS PERIOD   1
     5 TOTAL ITERATIONS
  MAXIMUM CONCENTRATION CHANGES FOR EACH ITERATION:
  MAX. CHANGE LAYER,ROW,COL MAX. CHANGE LAYER,ROW,COL MAX. CHANGE LAYER,ROW,COL MAX. CHANGE LAYER,ROW,COL MAX. CHANGE LAYER,ROW,COL
 ------------------------------------------------------------------------------------------------------------------------------------
   0.1748E-01 (  2,  1, 40)  0.4899E-03 (  2,  1, 77)  0.1334E-04 (  3,  1, 77)  0.6264E-06 (  3,  1, 45)  0.1753E-07 (  4,  1, 45)


                                          ================================================
                                                         FROM TIME =   5520.0     TO    5530.0    

 
 SOLVING FOR HEAD 
 FLOW MODEL IS TRANSIENT
 FLOW MODEL CONTAINS CONSTANT-HEAD CELLS


 MAXIMUM STEPSIZE DURING WHICH ANY PARTICLE CANNOT MOVE MORE THAN ONE CELL
 =  5.669    (WHEN MIN. R.F.=1)  AT K=   6, I=   1, J=  47

 MAXIMUM STEPSIZE WHICH MEETS STABILITY CRITERION OF THE ADVECTION TERM
 (FOR PURE FINITE-DIFFERENCE OPTION, MIXELM=0) 
 =  3.836    (WHEN MIN. R.F.=1)  AT K=   2, I=   1, J=  77


 TOTAL NUMBER OF POINT SOURCES/SINKS PRESENT IN THE FLOW MODEL =    62

 MAXIMUM STEPSIZE WHICH MEETS STABILITY CRITERION OF THE SINK & SOURCE TERM
 =  371.4    (WHEN MIN. R.F.=1)  AT K=   2, I=   1, J= 120

 MAXIMUM STEPSIZE WHICH MEETS STABILITY CRITERION OF THE DISPERSION TERM
 =  20.29    (WHEN MIN. R.F.=1)  AT K=   1, I=   1, J=  31


     1 CALLS TO GCG PACKAGE FOR TRANSPORT TIME STEP   1 IN FLOW TIME STEP 553 STRESS PERIOD   1
     6 TOTAL ITERATIONS

 NO OUTPUT CONTROL FOR STRESS PERIOD    1   TIME STEP 553
 
 SOLVING FOR HEAD 
 FLOW MODEL IS TRANSIENT
 FLOW MODEL CONTAINS CONSTANT-HEAD CELLS


 MAXIMUM STEPSIZE DURING WHICH ANY PARTICLE CANNOT MOVE MORE THAN ONE CELL
 =  5.770    (WHEN MIN. R.F.=1)  AT K=   6, I=   1, J=  47

 MAXIMUM STEPSIZE WHICH MEETS STABILITY CRITERION OF THE ADVECTION TERM
 (FOR PURE FINITE-DIFFERENCE OPTION, MIXELM=0) 
 =  3.721    (WHEN MIN. R.F.=1)  AT K=   2, I=   1, J=  42


 TOTAL NUMBER OF POINT SOURCES/SINKS PRESENT IN THE FLOW MODEL =    62

 MAXIMUM STEPSIZE WHICH MEETS STABILITY CRITERION OF THE SINK & SOURCE TERM
 =  344.2    (WHEN MIN. R.F.=1)  AT K=   2, I=   1, J= 120

 MAXIMUM STEPSIZE WHICH MEETS STABILITY CRITERION OF THE DISPERSION TERM
 =  20.29    (WHEN MIN. R.F.=1)  AT K=   1, I=   1, J=  31
     1 CALLS TO GCG PACKAGE FOR TRANSPORT TIME STEP   2 IN FLOW TIME STEP 553 STRESS PERIOD   1
     6 TOTAL ITERATIONS
 
 SOLVING FOR HEAD 
 FLOW MODEL IS TRANSIENT
 FLOW MODEL CONTAINS CONSTANT-HEAD CELLS


 MAXIMUM STEPSIZE DURING WHICH ANY PARTICLE CANNOT MOVE MORE THAN ONE CELL
 =  5.910    (WHEN MIN. R.F.=1)  AT K=   6, I=   1, J=  47

 MAXIMUM STEPSIZE WHICH MEETS STABILITY CRITERION OF THE ADVECTION TERM
 (FOR PURE FINITE-DIFFERENCE OPTION, MIXELM=0) 
 =  3.729    (WHEN MIN. R.F.=1)  AT K=   2, I=   1, J=  42


 TOTAL NUMBER OF POINT SOURCES/SINKS PRESENT IN THE FLOW MODEL =    62

 MAXIMUM STEPSIZE WHICH MEETS STABILITY CRITERION OF THE SINK & SOURCE TERM
 =  339.0    (WHEN MIN. R.F.=1)  AT K=   2, I=   1, J= 120

 MAXIMUM STEPSIZE WHICH MEETS STABILITY CRITERION OF THE DISPERSION TERM
 =  20.29    (WHEN MIN. R.F.=1)  AT K=   1, I=   1, J=  31
     1 CALLS TO GCG PACKAGE FOR TRANSPORT TIME STEP   3 IN FLOW TIME STEP 553 STRESS PERIOD   1
     6 TOTAL ITERATIONS
 
 SOLVING FOR HEAD 
 FLOW MODEL IS TRANSIENT
 FLOW MODEL CONTAINS CONSTANT-HEAD CELLS


 MAXIMUM STEPSIZE DURING WHICH ANY PARTICLE CANNOT MOVE MORE THAN ONE CELL
 =  6.027    (WHEN MIN. R.F.=1)  AT K=   7, I=   1, J=  47

 MAXIMUM STEPSIZE WHICH MEETS STABILITY CRITERION OF THE ADVECTION TERM
 (FOR PURE FINITE-DIFFERENCE OPTION, MIXELM=0) 
 =  3.854    (WHEN MIN. R.F.=1)  AT K=   2, I=   1, J=  42


 TOTAL NUMBER OF POINT SOURCES/SINKS PRESENT IN THE FLOW MODEL =    62

 MAXIMUM STEPSIZE WHICH MEETS STABILITY CRITERION OF THE SINK & SOURCE TERM
 =  326.7    (WHEN MIN. R.F.=1)  AT K=   2, I=   1, J= 120

 MAXIMUM STEPSIZE WHICH MEETS STABILITY CRITERION OF THE DISPERSION TERM
 =  20.29    (WHEN MIN. R.F.=1)  AT K=   1, I=   1, J=  31
     1 CALLS TO GCG PACKAGE FOR TRANSPORT TIME STEP   4 IN FLOW TIME STEP 553 STRESS PERIOD   1
     5 TOTAL ITERATIONS
  MAXIMUM CONCENTRATION CHANGES FOR EACH ITERATION:
  MAX. CHANGE LAYER,ROW,COL MAX. CHANGE LAYER,ROW,COL MAX. CHANGE LAYER,ROW,COL MAX. CHANGE LAYER,ROW,COL MAX. CHANGE LAYER,ROW,COL
 ------------------------------------------------------------------------------------------------------------------------------------
   0.1766E-01 (  2,  1, 78)  0.3593E-03 (  2,  1, 76)  0.1053E-04 (  3,  1, 43)  0.4548E-06 (  3,  1, 45)  0.1058E-07 (  4,  1, 75)


                                          ================================================
                                                         FROM TIME =   5530.0     TO    5540.0    

 
 SOLVING FOR HEAD 
 FLOW MODEL IS TRANSIENT
 FLOW MODEL CONTAINS CONSTANT-HEAD CELLS


 MAXIMUM STEPSIZE DURING WHICH ANY PARTICLE CANNOT MOVE MORE THAN ONE CELL
 =  6.081    (WHEN MIN. R.F.=1)  AT K=   7, I=   1, J=  47

 MAXIMUM STEPSIZE WHICH MEETS STABILITY CRITERION OF THE ADVECTION TERM
 (FOR PURE FINITE-DIFFERENCE OPTION, MIXELM=0) 
 =  3.989    (WHEN MIN. R.F.=1)  AT K=   2, I=   1, J=  42


 TOTAL NUMBER OF POINT SOURCES/SINKS PRESENT IN THE FLOW MODEL =    62

 MAXIMUM STEPSIZE WHICH MEETS STABILITY CRITERION OF THE SINK & SOURCE TERM
 =  346.1    (WHEN MIN. R.F.=1)  AT K=   2, I=   1, J= 120

 MAXIMUM STEPSIZE WHICH MEETS STABILITY CRITERION OF THE DISPERSION TERM
 =  20.29    (WHEN MIN. R.F.=1)  AT K=   1, I=   1, J=  31


     1 CALLS TO GCG PACKAGE FOR TRANSPORT TIME STEP   1 IN FLOW TIME STEP 554 STRESS PERIOD   1
     6 TOTAL ITERATIONS

 NO OUTPUT CONTROL FOR STRESS PERIOD    1   TIME STEP 554
 
 SOLVING FOR HEAD 
 FLOW MODEL IS TRANSIENT
 FLOW MODEL CONTAINS CONSTANT-HEAD CELLS


 MAXIMUM STEPSIZE DURING WHICH ANY PARTICLE CANNOT MOVE MORE THAN ONE CELL
 =  6.216    (WHEN MIN. R.F.=1)  AT K=   7, I=   1, J=  47

 MAXIMUM STEPSIZE WHICH MEETS STABILITY CRITERION OF THE ADVECTION TERM
 (FOR PURE FINITE-DIFFERENCE OPTION, MIXELM=0) 
 =  4.002    (WHEN MIN. R.F.=1)  AT K=   2, I=   1, J=  43


 TOTAL NUMBER OF POINT SOURCES/SINKS PRESENT IN THE FLOW MODEL =    62

 MAXIMUM STEPSIZE WHICH MEETS STABILITY CRITERION OF THE SINK & SOURCE TERM
 =  315.4    (WHEN MIN. R.F.=1)  AT K=   2, I=   1, J= 120

 MAXIMUM STEPSIZE WHICH MEETS STABILITY CRITERION OF THE DISPERSION TERM
 =  20.29    (WHEN MIN. R.F.=1)  AT K=   1, I=   1, J=  31
     1 CALLS TO GCG PACKAGE FOR TRANSPORT TIME STEP   2 IN FLOW TIME STEP 554 STRESS PERIOD   1
     6 TOTAL ITERATIONS
 
 SOLVING FOR HEAD 
 FLOW MODEL IS TRANSIENT
 FLOW MODEL CONTAINS CONSTANT-HEAD CELLS


 MAXIMUM STEPSIZE DURING WHICH ANY PARTICLE CANNOT MOVE MORE THAN ONE CELL
 =  6.314    (WHEN MIN. R.F.=1)  AT K=   4, I=   1, J=  48

 MAXIMUM STEPSIZE WHICH MEETS STABILITY CRITERION OF THE ADVECTION TERM
 (FOR PURE FINITE-DIFFERENCE OPTION, MIXELM=0) 
 =  3.804    (WHEN MIN. R.F.=1)  AT K=   2, I=   1, J=  43


 TOTAL NUMBER OF POINT SOURCES/SINKS PRESENT IN THE FLOW MODEL =    62

 MAXIMUM STEPSIZE WHICH MEETS STABILITY CRITERION OF THE SINK & SOURCE TERM
 =  315.7    (WHEN MIN. R.F.=1)  AT K=   2, I=   1, J= 120

 MAXIMUM STEPSIZE WHICH MEETS STABILITY CRITERION OF THE DISPERSION TERM
 =  20.29    (WHEN MIN. R.F.=1)  AT K=   1, I=   1, J=  31
     1 CALLS TO GCG PACKAGE FOR TRANSPORT TIME STEP   3 IN FLOW TIME STEP 554 STRESS PERIOD   1
     6 TOTAL ITERATIONS
 
 SOLVING FOR HEAD 
 FLOW MODEL IS TRANSIENT
 FLOW MODEL CONTAINS CONSTANT-HEAD CELLS


 MAXIMUM STEPSIZE DURING WHICH ANY PARTICLE CANNOT MOVE MORE THAN ONE CELL
 =  6.342    (WHEN MIN. R.F.=1)  AT K=   4, I=   1, J=  48

 MAXIMUM STEPSIZE WHICH MEETS STABILITY CRITERION OF THE ADVECTION TERM
 (FOR PURE FINITE-DIFFERENCE OPTION, MIXELM=0) 
 =  3.767    (WHEN MIN. R.F.=1)  AT K=   2, I=   1, J=  43


 TOTAL NUMBER OF POINT SOURCES/SINKS PRESENT IN THE FLOW MODEL =    62

 MAXIMUM STEPSIZE WHICH MEETS STABILITY CRITERION OF THE SINK & SOURCE TERM
 =  310.9    (WHEN MIN. R.F.=1)  AT K=   2, I=   1, J= 120

 MAXIMUM STEPSIZE WHICH MEETS STABILITY CRITERION OF THE DISPERSION TERM
 =  20.29    (WHEN MIN. R.F.=1)  AT K=   1, I=   1, J=  31
     1 CALLS TO GCG PACKAGE FOR TRANSPORT TIME STEP   4 IN FLOW TIME STEP 554 STRESS PERIOD   1
     5 TOTAL ITERATIONS
  MAXIMUM CONCENTRATION CHANGES FOR EACH ITERATION:
  MAX. CHANGE LAYER,ROW,COL MAX. CHANGE LAYER,ROW,COL MAX. CHANGE LAYER,ROW,COL MAX. CHANGE LAYER,ROW,COL MAX. CHANGE LAYER,ROW,COL
 ------------------------------------------------------------------------------------------------------------------------------------
   0.1181E-01 (  2,  1, 90)  0.2053E-03 (  2,  1, 76)  0.5291E-05 (  2,  1, 78)  0.1368E-06 (  3,  1, 78)  0.2868E-08 (  4,  1, 82)


                                          ================================================
                                                         FROM TIME =   5540.0     TO    5550.0    

 
 SOLVING FOR HEAD 
 FLOW MODEL IS TRANSIENT
 FLOW MODEL CONTAINS CONSTANT-HEAD CELLS


 MAXIMUM STEPSIZE DURING WHICH ANY PARTICLE CANNOT MOVE MORE THAN ONE CELL
 =  6.363    (WHEN MIN. R.F.=1)  AT K=   4, I=   1, J=  48

 MAXIMUM STEPSIZE WHICH MEETS STABILITY CRITERION OF THE ADVECTION TERM
 (FOR PURE FINITE-DIFFERENCE OPTION, MIXELM=0) 
 =  3.785    (WHEN MIN. R.F.=1)  AT K=   2, I=   1, J=  43


 TOTAL NUMBER OF POINT SOURCES/SINKS PRESENT IN THE FLOW MODEL =    62

 MAXIMUM STEPSIZE WHICH MEETS STABILITY CRITERION OF THE SINK & SOURCE TERM
 =  346.5    (WHEN MIN. R.F.=1)  AT K=   2, I=   1, J= 120

 MAXIMUM STEPSIZE WHICH MEETS STABILITY CRITERION OF THE DISPERSION TERM
 =  20.29    (WHEN MIN. R.F.=1)  AT K=   1, I=   1, J=  31


     1 CALLS TO GCG PACKAGE FOR TRANSPORT TIME STEP   1 IN FLOW TIME STEP 555 STRESS PERIOD   1
     6 TOTAL ITERATIONS

 NO OUTPUT CONTROL FOR STRESS PERIOD    1   TIME STEP 555
 
 SOLVING FOR HEAD 
 FLOW MODEL IS TRANSIENT
 FLOW MODEL CONTAINS CONSTANT-HEAD CELLS


 MAXIMUM STEPSIZE DURING WHICH ANY PARTICLE CANNOT MOVE MORE THAN ONE CELL
 =  6.424    (WHEN MIN. R.F.=1)  AT K=   4, I=   1, J=  48

 MAXIMUM STEPSIZE WHICH MEETS STABILITY CRITERION OF THE ADVECTION TERM
 (FOR PURE FINITE-DIFFERENCE OPTION, MIXELM=0) 
 =  3.901    (WHEN MIN. R.F.=1)  AT K=   2, I=   1, J=  43


 TOTAL NUMBER OF POINT SOURCES/SINKS PRESENT IN THE FLOW MODEL =    62

 MAXIMUM STEPSIZE WHICH MEETS STABILITY CRITERION OF THE SINK & SOURCE TERM
 =  317.7    (WHEN MIN. R.F.=1)  AT K=   2, I=   1, J= 120

 MAXIMUM STEPSIZE WHICH MEETS STABILITY CRITERION OF THE DISPERSION TERM
 =  20.29    (WHEN MIN. R.F.=1)  AT K=   1, I=   1, J=  31
     1 CALLS TO GCG PACKAGE FOR TRANSPORT TIME STEP   2 IN FLOW TIME STEP 555 STRESS PERIOD   1
     6 TOTAL ITERATIONS
 
 SOLVING FOR HEAD 
 FLOW MODEL IS TRANSIENT
 FLOW MODEL CONTAINS CONSTANT-HEAD CELLS


 MAXIMUM STEPSIZE DURING WHICH ANY PARTICLE CANNOT MOVE MORE THAN ONE CELL
 =  6.471    (WHEN MIN. R.F.=1)  AT K=   5, I=   1, J=  48

 MAXIMUM STEPSIZE WHICH MEETS STABILITY CRITERION OF THE ADVECTION TERM
 (FOR PURE FINITE-DIFFERENCE OPTION, MIXELM=0) 
 =  4.194    (WHEN MIN. R.F.=1)  AT K=   2, I=   1, J=  43


 TOTAL NUMBER OF POINT SOURCES/SINKS PRESENT IN THE FLOW MODEL =    62

 MAXIMUM STEPSIZE WHICH MEETS STABILITY CRITERION OF THE SINK & SOURCE TERM
 =  303.3    (WHEN MIN. R.F.=1)  AT K=   2, I=   1, J= 120

 MAXIMUM STEPSIZE WHICH MEETS STABILITY CRITERION OF THE DISPERSION TERM
 =  20.29    (WHEN MIN. R.F.=1)  AT K=   1, I=   1, J=  31
     1 CALLS TO GCG PACKAGE FOR TRANSPORT TIME STEP   3 IN FLOW TIME STEP 555 STRESS PERIOD   1
     6 TOTAL ITERATIONS
 
 SOLVING FOR HEAD 
 FLOW MODEL IS TRANSIENT
 FLOW MODEL CONTAINS CONSTANT-HEAD CELLS


 MAXIMUM STEPSIZE DURING WHICH ANY PARTICLE CANNOT MOVE MORE THAN ONE CELL
 =  6.545    (WHEN MIN. R.F.=1)  AT K=   5, I=   1, J=  48

 MAXIMUM STEPSIZE WHICH MEETS STABILITY CRITERION OF THE ADVECTION TERM
 (FOR PURE FINITE-DIFFERENCE OPTION, MIXELM=0) 
 =  4.140    (WHEN MIN. R.F.=1)  AT K=   2, I=   1, J=  44


 TOTAL NUMBER OF POINT SOURCES/SINKS PRESENT IN THE FLOW MODEL =    62

 MAXIMUM STEPSIZE WHICH MEETS STABILITY CRITERION OF THE SINK & SOURCE TERM
 =  289.3    (WHEN MIN. R.F.=1)  AT K=   2, I=   1, J= 120

 MAXIMUM STEPSIZE WHICH MEETS STABILITY CRITERION OF THE DISPERSION TERM
 =  20.29    (WHEN MIN. R.F.=1)  AT K=   1, I=   1, J=  31
     1 CALLS TO GCG PACKAGE FOR TRANSPORT TIME STEP   4 IN FLOW TIME STEP 555 STRESS PERIOD   1
     5 TOTAL ITERATIONS
  MAXIMUM CONCENTRATION CHANGES FOR EACH ITERATION:
  MAX. CHANGE LAYER,ROW,COL MAX. CHANGE LAYER,ROW,COL MAX. CHANGE LAYER,ROW,COL MAX. CHANGE LAYER,ROW,COL MAX. CHANGE LAYER,ROW,COL
 ------------------------------------------------------------------------------------------------------------------------------------
   0.1539E-01 (  2,  1, 77)  0.3254E-03 (  2,  1, 83)  0.8800E-05 (  3,  1, 46)  0.2773E-06 (  3,  1, 84)  0.9274E-08 (  4,  1, 81)


                                          ================================================
                                                         FROM TIME =   5550.0     TO    5560.0    

 
 SOLVING FOR HEAD 
 FLOW MODEL IS TRANSIENT
 FLOW MODEL CONTAINS CONSTANT-HEAD CELLS


 MAXIMUM STEPSIZE DURING WHICH ANY PARTICLE CANNOT MOVE MORE THAN ONE CELL
 =  6.595    (WHEN MIN. R.F.=1)  AT K=   5, I=   1, J=  48

 MAXIMUM STEPSIZE WHICH MEETS STABILITY CRITERION OF THE ADVECTION TERM
 (FOR PURE FINITE-DIFFERENCE OPTION, MIXELM=0) 
 =  4.047    (WHEN MIN. R.F.=1)  AT K=   2, I=   1, J=  44


 TOTAL NUMBER OF POINT SOURCES/SINKS PRESENT IN THE FLOW MODEL =    62

 MAXIMUM STEPSIZE WHICH MEETS STABILITY CRITERION OF THE SINK & SOURCE TERM
 =  304.6    (WHEN MIN. R.F.=1)  AT K=   2, I=   1, J= 120

 MAXIMUM STEPSIZE WHICH MEETS STABILITY CRITERION OF THE DISPERSION TERM
 =  20.29    (WHEN MIN. R.F.=1)  AT K=   1, I=   1, J=  31


     1 CALLS TO GCG PACKAGE FOR TRANSPORT TIME STEP   1 IN FLOW TIME STEP 556 STRESS PERIOD   1
     6 TOTAL ITERATIONS

 NO OUTPUT CONTROL FOR STRESS PERIOD    1   TIME STEP 556
 
 SOLVING FOR HEAD 
 FLOW MODEL IS TRANSIENT
 FLOW MODEL CONTAINS CONSTANT-HEAD CELLS


 MAXIMUM STEPSIZE DURING WHICH ANY PARTICLE CANNOT MOVE MORE THAN ONE CELL
 =  6.296    (WHEN MIN. R.F.=1)  AT K=   4, I=   1, J=  74

 MAXIMUM STEPSIZE WHICH MEETS STABILITY CRITERION OF THE ADVECTION TERM
 (FOR PURE FINITE-DIFFERENCE OPTION, MIXELM=0) 
 =  3.942    (WHEN MIN. R.F.=1)  AT K=   2, I=   1, J=  44


 TOTAL NUMBER OF POINT SOURCES/SINKS PRESENT IN THE FLOW MODEL =    62

 MAXIMUM STEPSIZE WHICH MEETS STABILITY CRITERION OF THE SINK & SOURCE TERM
 =  284.7    (WHEN MIN. R.F.=1)  AT K=   2, I=   1, J= 120

 MAXIMUM STEPSIZE WHICH MEETS STABILITY CRITERION OF THE DISPERSION TERM
 =  20.29    (WHEN MIN. R.F.=1)  AT K=   1, I=   1, J=  31
     1 CALLS TO GCG PACKAGE FOR TRANSPORT TIME STEP   2 IN FLOW TIME STEP 556 STRESS PERIOD   1
     6 TOTAL ITERATIONS
 
 SOLVING FOR HEAD 
 FLOW MODEL IS TRANSIENT
 FLOW MODEL CONTAINS CONSTANT-HEAD CELLS


 MAXIMUM STEPSIZE DURING WHICH ANY PARTICLE CANNOT MOVE MORE THAN ONE CELL
 =  5.897    (WHEN MIN. R.F.=1)  AT K=   4, I=   1, J=  74

 MAXIMUM STEPSIZE WHICH MEETS STABILITY CRITERION OF THE ADVECTION TERM
 (FOR PURE FINITE-DIFFERENCE OPTION, MIXELM=0) 
 =  3.983    (WHEN MIN. R.F.=1)  AT K=   2, I=   1, J=  44


 TOTAL NUMBER OF POINT SOURCES/SINKS PRESENT IN THE FLOW MODEL =    62

 MAXIMUM STEPSIZE WHICH MEETS STABILITY CRITERION OF THE SINK & SOURCE TERM
 =  277.7    (WHEN MIN. R.F.=1)  AT K=   2, I=   1, J= 120

 MAXIMUM STEPSIZE WHICH MEETS STABILITY CRITERION OF THE DISPERSION TERM
 =  20.29    (WHEN MIN. R.F.=1)  AT K=   1, I=   1, J=  31
     1 CALLS TO GCG PACKAGE FOR TRANSPORT TIME STEP   3 IN FLOW TIME STEP 556 STRESS PERIOD   1
     6 TOTAL ITERATIONS
 
 SOLVING FOR HEAD 
 FLOW MODEL IS TRANSIENT
 FLOW MODEL CONTAINS CONSTANT-HEAD CELLS


 MAXIMUM STEPSIZE DURING WHICH ANY PARTICLE CANNOT MOVE MORE THAN ONE CELL
 =  5.576    (WHEN MIN. R.F.=1)  AT K=   4, I=   1, J=  74

 MAXIMUM STEPSIZE WHICH MEETS STABILITY CRITERION OF THE ADVECTION TERM
 (FOR PURE FINITE-DIFFERENCE OPTION, MIXELM=0) 
 =  4.101    (WHEN MIN. R.F.=1)  AT K=   2, I=   1, J=  81


 TOTAL NUMBER OF POINT SOURCES/SINKS PRESENT IN THE FLOW MODEL =    62

 MAXIMUM STEPSIZE WHICH MEETS STABILITY CRITERION OF THE SINK & SOURCE TERM
 =  267.9    (WHEN MIN. R.F.=1)  AT K=   2, I=   1, J= 120

 MAXIMUM STEPSIZE WHICH MEETS STABILITY CRITERION OF THE DISPERSION TERM
 =  20.29    (WHEN MIN. R.F.=1)  AT K=   1, I=   1, J=  31
     1 CALLS TO GCG PACKAGE FOR TRANSPORT TIME STEP   4 IN FLOW TIME STEP 556 STRESS PERIOD   1
     4 TOTAL ITERATIONS
  MAXIMUM CONCENTRATION CHANGES FOR EACH ITERATION:
  MAX. CHANGE LAYER,ROW,COL MAX. CHANGE LAYER,ROW,COL MAX. CHANGE LAYER,ROW,COL MAX. CHANGE LAYER,ROW,COL MAX. CHANGE LAYER,ROW,COL
 ------------------------------------------------------------------------------------------------------------------------------------
   0.1012E-01 (  2,  1, 83)  0.1460E-03 (  2,  1, 46)  0.2603E-05 (  2,  1, 77)  0.6544E-07 (  3,  1, 77)


                                          ================================================
                                                         FROM TIME =   5560.0     TO    5570.0    

 
 SOLVING FOR HEAD 
 FLOW MODEL IS TRANSIENT
 FLOW MODEL CONTAINS CONSTANT-HEAD CELLS


 MAXIMUM STEPSIZE DURING WHICH ANY PARTICLE CANNOT MOVE MORE THAN ONE CELL
 =  5.493    (WHEN MIN. R.F.=1)  AT K=   4, I=   1, J=  74

 MAXIMUM STEPSIZE WHICH MEETS STABILITY CRITERION OF THE ADVECTION TERM
 (FOR PURE FINITE-DIFFERENCE OPTION, MIXELM=0) 
 =  4.026    (WHEN MIN. R.F.=1)  AT K=   2, I=   1, J=  81


 TOTAL NUMBER OF POINT SOURCES/SINKS PRESENT IN THE FLOW MODEL =    62

 MAXIMUM STEPSIZE WHICH MEETS STABILITY CRITERION OF THE SINK & SOURCE TERM
 =  294.4    (WHEN MIN. R.F.=1)  AT K=   2, I=   1, J= 120

 MAXIMUM STEPSIZE WHICH MEETS STABILITY CRITERION OF THE DISPERSION TERM
 =  20.29    (WHEN MIN. R.F.=1)  AT K=   1, I=   1, J=  31


     1 CALLS TO GCG PACKAGE FOR TRANSPORT TIME STEP   1 IN FLOW TIME STEP 557 STRESS PERIOD   1
     6 TOTAL ITERATIONS

 NO OUTPUT CONTROL FOR STRESS PERIOD    1   TIME STEP 557
 
 SOLVING FOR HEAD 
 FLOW MODEL IS TRANSIENT
 FLOW MODEL CONTAINS CONSTANT-HEAD CELLS


 MAXIMUM STEPSIZE DURING WHICH ANY PARTICLE CANNOT MOVE MORE THAN ONE CELL
 =  5.264    (WHEN MIN. R.F.=1)  AT K=   4, I=   1, J=  74

 MAXIMUM STEPSIZE WHICH MEETS STABILITY CRITERION OF THE ADVECTION TERM
 (FOR PURE FINITE-DIFFERENCE OPTION, MIXELM=0) 
 =  3.879    (WHEN MIN. R.F.=1)  AT K=   2, I=   1, J=  81


 TOTAL NUMBER OF POINT SOURCES/SINKS PRESENT IN THE FLOW MODEL =    62

 MAXIMUM STEPSIZE WHICH MEETS STABILITY CRITERION OF THE SINK & SOURCE TERM
 =  269.5    (WHEN MIN. R.F.=1)  AT K=   2, I=   1, J= 120

 MAXIMUM STEPSIZE WHICH MEETS STABILITY CRITERION OF THE DISPERSION TERM
 =  20.29    (WHEN MIN. R.F.=1)  AT K=   1, I=   1, J=  31
     1 CALLS TO GCG PACKAGE FOR TRANSPORT TIME STEP   2 IN FLOW TIME STEP 557 STRESS PERIOD   1
     6 TOTAL ITERATIONS
 
 SOLVING FOR HEAD 
 FLOW MODEL IS TRANSIENT
 FLOW MODEL CONTAINS CONSTANT-HEAD CELLS


 MAXIMUM STEPSIZE DURING WHICH ANY PARTICLE CANNOT MOVE MORE THAN ONE CELL
 =  5.107    (WHEN MIN. R.F.=1)  AT K=   4, I=   1, J=  74

 MAXIMUM STEPSIZE WHICH MEETS STABILITY CRITERION OF THE ADVECTION TERM
 (FOR PURE FINITE-DIFFERENCE OPTION, MIXELM=0) 
 =  3.965    (WHEN MIN. R.F.=1)  AT K=   2, I=   1, J=  81


 TOTAL NUMBER OF POINT SOURCES/SINKS PRESENT IN THE FLOW MODEL =    62

 MAXIMUM STEPSIZE WHICH MEETS STABILITY CRITERION OF THE SINK & SOURCE TERM
 =  256.3    (WHEN MIN. R.F.=1)  AT K=   2, I=   1, J= 120

 MAXIMUM STEPSIZE WHICH MEETS STABILITY CRITERION OF THE DISPERSION TERM
 =  20.29    (WHEN MIN. R.F.=1)  AT K=   1, I=   1, J=  31
     1 CALLS TO GCG PACKAGE FOR TRANSPORT TIME STEP   3 IN FLOW TIME STEP 557 STRESS PERIOD   1
     6 TOTAL ITERATIONS
 
 SOLVING FOR HEAD 
 FLOW MODEL IS TRANSIENT
 FLOW MODEL CONTAINS CONSTANT-HEAD CELLS


 MAXIMUM STEPSIZE DURING WHICH ANY PARTICLE CANNOT MOVE MORE THAN ONE CELL
 =  5.016    (WHEN MIN. R.F.=1)  AT K=   4, I=   1, J=  74

 MAXIMUM STEPSIZE WHICH MEETS STABILITY CRITERION OF THE ADVECTION TERM
 (FOR PURE FINITE-DIFFERENCE OPTION, MIXELM=0) 
 =  3.971    (WHEN MIN. R.F.=1)  AT K=   2, I=   1, J=  80


 TOTAL NUMBER OF POINT SOURCES/SINKS PRESENT IN THE FLOW MODEL =    62

 MAXIMUM STEPSIZE WHICH MEETS STABILITY CRITERION OF THE SINK & SOURCE TERM
 =  242.4    (WHEN MIN. R.F.=1)  AT K=   2, I=   1, J= 120

 MAXIMUM STEPSIZE WHICH MEETS STABILITY CRITERION OF THE DISPERSION TERM
 =  20.29    (WHEN MIN. R.F.=1)  AT K=   1, I=   1, J=  31
     1 CALLS TO GCG PACKAGE FOR TRANSPORT TIME STEP   4 IN FLOW TIME STEP 557 STRESS PERIOD   1
     4 TOTAL ITERATIONS
  MAXIMUM CONCENTRATION CHANGES FOR EACH ITERATION:
  MAX. CHANGE LAYER,ROW,COL MAX. CHANGE LAYER,ROW,COL MAX. CHANGE LAYER,ROW,COL MAX. CHANGE LAYER,ROW,COL MAX. CHANGE LAYER,ROW,COL
 ------------------------------------------------------------------------------------------------------------------------------------
   0.1216E-01 (  2,  1, 82)  0.1596E-03 (  3,  1, 77)  0.4460E-05 (  3,  1, 80)  0.8441E-07 (  4,  1, 80)


                                          ================================================
                                                         FROM TIME =   5570.0     TO    5580.0    

 
 SOLVING FOR HEAD 
 FLOW MODEL IS TRANSIENT
 FLOW MODEL CONTAINS CONSTANT-HEAD CELLS


 MAXIMUM STEPSIZE DURING WHICH ANY PARTICLE CANNOT MOVE MORE THAN ONE CELL
 =  5.000    (WHEN MIN. R.F.=1)  AT K=   4, I=   1, J=  74

 MAXIMUM STEPSIZE WHICH MEETS STABILITY CRITERION OF THE ADVECTION TERM
 (FOR PURE FINITE-DIFFERENCE OPTION, MIXELM=0) 
 =  3.853    (WHEN MIN. R.F.=1)  AT K=   2, I=   1, J=  80


 TOTAL NUMBER OF POINT SOURCES/SINKS PRESENT IN THE FLOW MODEL =    62

 MAXIMUM STEPSIZE WHICH MEETS STABILITY CRITERION OF THE SINK & SOURCE TERM
 =  252.7    (WHEN MIN. R.F.=1)  AT K=   2, I=   1, J= 120

 MAXIMUM STEPSIZE WHICH MEETS STABILITY CRITERION OF THE DISPERSION TERM
 =  20.29    (WHEN MIN. R.F.=1)  AT K=   1, I=   1, J=  31


     1 CALLS TO GCG PACKAGE FOR TRANSPORT TIME STEP   1 IN FLOW TIME STEP 558 STRESS PERIOD   1
     6 TOTAL ITERATIONS

 NO OUTPUT CONTROL FOR STRESS PERIOD    1   TIME STEP 558
 
 SOLVING FOR HEAD 
 FLOW MODEL IS TRANSIENT
 FLOW MODEL CONTAINS CONSTANT-HEAD CELLS


 MAXIMUM STEPSIZE DURING WHICH ANY PARTICLE CANNOT MOVE MORE THAN ONE CELL
 =  4.988    (WHEN MIN. R.F.=1)  AT K=   4, I=   1, J=  74

 MAXIMUM STEPSIZE WHICH MEETS STABILITY CRITERION OF THE ADVECTION TERM
 (FOR PURE FINITE-DIFFERENCE OPTION, MIXELM=0) 
 =  3.631    (WHEN MIN. R.F.=1)  AT K=   2, I=   1, J=  80


 TOTAL NUMBER OF POINT SOURCES/SINKS PRESENT IN THE FLOW MODEL =    62

 MAXIMUM STEPSIZE WHICH MEETS STABILITY CRITERION OF THE SINK & SOURCE TERM
 =  234.2    (WHEN MIN. R.F.=1)  AT K=   2, I=   1, J= 120

 MAXIMUM STEPSIZE WHICH MEETS STABILITY CRITERION OF THE DISPERSION TERM
 =  20.29    (WHEN MIN. R.F.=1)  AT K=   1, I=   1, J=  31
     1 CALLS TO GCG PACKAGE FOR TRANSPORT TIME STEP   2 IN FLOW TIME STEP 558 STRESS PERIOD   1
     6 TOTAL ITERATIONS
 
 SOLVING FOR HEAD 
 FLOW MODEL IS TRANSIENT
 FLOW MODEL CONTAINS CONSTANT-HEAD CELLS


 MAXIMUM STEPSIZE DURING WHICH ANY PARTICLE CANNOT MOVE MORE THAN ONE CELL
 =  5.023    (WHEN MIN. R.F.=1)  AT K=   4, I=   1, J=  74

 MAXIMUM STEPSIZE WHICH MEETS STABILITY CRITERION OF THE ADVECTION TERM
 (FOR PURE FINITE-DIFFERENCE OPTION, MIXELM=0) 
 =  3.593    (WHEN MIN. R.F.=1)  AT K=   2, I=   1, J=  80


 TOTAL NUMBER OF POINT SOURCES/SINKS PRESENT IN THE FLOW MODEL =    62

 MAXIMUM STEPSIZE WHICH MEETS STABILITY CRITERION OF THE SINK & SOURCE TERM
 =  234.7    (WHEN MIN. R.F.=1)  AT K=   2, I=   1, J= 120

 MAXIMUM STEPSIZE WHICH MEETS STABILITY CRITERION OF THE DISPERSION TERM
 =  20.29    (WHEN MIN. R.F.=1)  AT K=   1, I=   1, J=  31
     1 CALLS TO GCG PACKAGE FOR TRANSPORT TIME STEP   3 IN FLOW TIME STEP 558 STRESS PERIOD   1
     6 TOTAL ITERATIONS
 
 SOLVING FOR HEAD 
 FLOW MODEL IS TRANSIENT
 FLOW MODEL CONTAINS CONSTANT-HEAD CELLS


 MAXIMUM STEPSIZE DURING WHICH ANY PARTICLE CANNOT MOVE MORE THAN ONE CELL
 =  5.087    (WHEN MIN. R.F.=1)  AT K=   5, I=   1, J=  74

 MAXIMUM STEPSIZE WHICH MEETS STABILITY CRITERION OF THE ADVECTION TERM
 (FOR PURE FINITE-DIFFERENCE OPTION, MIXELM=0) 
 =  3.750    (WHEN MIN. R.F.=1)  AT K=   2, I=   1, J=  80


 TOTAL NUMBER OF POINT SOURCES/SINKS PRESENT IN THE FLOW MODEL =    62

 MAXIMUM STEPSIZE WHICH MEETS STABILITY CRITERION OF THE SINK & SOURCE TERM
 =  234.6    (WHEN MIN. R.F.=1)  AT K=   2, I=   1, J= 120

 MAXIMUM STEPSIZE WHICH MEETS STABILITY CRITERION OF THE DISPERSION TERM
 =  20.29    (WHEN MIN. R.F.=1)  AT K=   1, I=   1, J=  31
     1 CALLS TO GCG PACKAGE FOR TRANSPORT TIME STEP   4 IN FLOW TIME STEP 558 STRESS PERIOD   1
     5 TOTAL ITERATIONS
  MAXIMUM CONCENTRATION CHANGES FOR EACH ITERATION:
  MAX. CHANGE LAYER,ROW,COL MAX. CHANGE LAYER,ROW,COL MAX. CHANGE LAYER,ROW,COL MAX. CHANGE LAYER,ROW,COL MAX. CHANGE LAYER,ROW,COL
 ------------------------------------------------------------------------------------------------------------------------------------
   0.1759E-01 (  2,  1, 81)  0.3582E-03 (  2,  1, 79)  0.1411E-04 (  3,  1, 79)  0.3682E-06 (  3,  1, 82)  0.9435E-08 (  4,  1, 78)


                                          ================================================
                                                         FROM TIME =   5580.0     TO    5590.0    

 
 SOLVING FOR HEAD 
 FLOW MODEL IS TRANSIENT
 FLOW MODEL CONTAINS CONSTANT-HEAD CELLS


 MAXIMUM STEPSIZE DURING WHICH ANY PARTICLE CANNOT MOVE MORE THAN ONE CELL
 =  5.111    (WHEN MIN. R.F.=1)  AT K=   5, I=   1, J=  74

 MAXIMUM STEPSIZE WHICH MEETS STABILITY CRITERION OF THE ADVECTION TERM
 (FOR PURE FINITE-DIFFERENCE OPTION, MIXELM=0) 
 =  3.926    (WHEN MIN. R.F.=1)  AT K=   2, I=   1, J=  80


 TOTAL NUMBER OF POINT SOURCES/SINKS PRESENT IN THE FLOW MODEL =    62

 MAXIMUM STEPSIZE WHICH MEETS STABILITY CRITERION OF THE SINK & SOURCE TERM
 =  241.4    (WHEN MIN. R.F.=1)  AT K=   2, I=   1, J= 120

 MAXIMUM STEPSIZE WHICH MEETS STABILITY CRITERION OF THE DISPERSION TERM
 =  20.29    (WHEN MIN. R.F.=1)  AT K=   1, I=   1, J=  31


     1 CALLS TO GCG PACKAGE FOR TRANSPORT TIME STEP   1 IN FLOW TIME STEP 559 STRESS PERIOD   1
     6 TOTAL ITERATIONS

 NO OUTPUT CONTROL FOR STRESS PERIOD    1   TIME STEP 559
 
 SOLVING FOR HEAD 
 FLOW MODEL IS TRANSIENT
 FLOW MODEL CONTAINS CONSTANT-HEAD CELLS


 MAXIMUM STEPSIZE DURING WHICH ANY PARTICLE CANNOT MOVE MORE THAN ONE CELL
 =  5.183    (WHEN MIN. R.F.=1)  AT K=   5, I=   1, J=  74

 MAXIMUM STEPSIZE WHICH MEETS STABILITY CRITERION OF THE ADVECTION TERM
 (FOR PURE FINITE-DIFFERENCE OPTION, MIXELM=0) 
 =  3.713    (WHEN MIN. R.F.=1)  AT K=   2, I=   1, J=  79


 TOTAL NUMBER OF POINT SOURCES/SINKS PRESENT IN THE FLOW MODEL =    62

 MAXIMUM STEPSIZE WHICH MEETS STABILITY CRITERION OF THE SINK & SOURCE TERM
 =  221.8    (WHEN MIN. R.F.=1)  AT K=   2, I=   1, J= 120

 MAXIMUM STEPSIZE WHICH MEETS STABILITY CRITERION OF THE DISPERSION TERM
 =  20.29    (WHEN MIN. R.F.=1)  AT K=   1, I=   1, J=  31
     1 CALLS TO GCG PACKAGE FOR TRANSPORT TIME STEP   2 IN FLOW TIME STEP 559 STRESS PERIOD   1
     6 TOTAL ITERATIONS
 
 SOLVING FOR HEAD 
 FLOW MODEL IS TRANSIENT
 FLOW MODEL CONTAINS CONSTANT-HEAD CELLS


 MAXIMUM STEPSIZE DURING WHICH ANY PARTICLE CANNOT MOVE MORE THAN ONE CELL
 =  5.301    (WHEN MIN. R.F.=1)  AT K=   5, I=   1, J=  74

 MAXIMUM STEPSIZE WHICH MEETS STABILITY CRITERION OF THE ADVECTION TERM
 (FOR PURE FINITE-DIFFERENCE OPTION, MIXELM=0) 
 =  3.554    (WHEN MIN. R.F.=1)  AT K=   2, I=   1, J=  79


 TOTAL NUMBER OF POINT SOURCES/SINKS PRESENT IN THE FLOW MODEL =    62

 MAXIMUM STEPSIZE WHICH MEETS STABILITY CRITERION OF THE SINK & SOURCE TERM
 =  217.5    (WHEN MIN. R.F.=1)  AT K=   2, I=   1, J= 120

 MAXIMUM STEPSIZE WHICH MEETS STABILITY CRITERION OF THE DISPERSION TERM
 =  20.29    (WHEN MIN. R.F.=1)  AT K=   1, I=   1, J=  31
     1 CALLS TO GCG PACKAGE FOR TRANSPORT TIME STEP   3 IN FLOW TIME STEP 559 STRESS PERIOD   1
     6 TOTAL ITERATIONS
 
 SOLVING FOR HEAD 
 FLOW MODEL IS TRANSIENT
 FLOW MODEL CONTAINS CONSTANT-HEAD CELLS


 MAXIMUM STEPSIZE DURING WHICH ANY PARTICLE CANNOT MOVE MORE THAN ONE CELL
 =  5.418    (WHEN MIN. R.F.=1)  AT K=   6, I=   1, J=  74

 MAXIMUM STEPSIZE WHICH MEETS STABILITY CRITERION OF THE ADVECTION TERM
 (FOR PURE FINITE-DIFFERENCE OPTION, MIXELM=0) 
 =  3.551    (WHEN MIN. R.F.=1)  AT K=   2, I=   1, J=  79


 TOTAL NUMBER OF POINT SOURCES/SINKS PRESENT IN THE FLOW MODEL =    62

 MAXIMUM STEPSIZE WHICH MEETS STABILITY CRITERION OF THE SINK & SOURCE TERM
 =  216.9    (WHEN MIN. R.F.=1)  AT K=   2, I=   1, J= 120

 MAXIMUM STEPSIZE WHICH MEETS STABILITY CRITERION OF THE DISPERSION TERM
 =  20.29    (WHEN MIN. R.F.=1)  AT K=   1, I=   1, J=  31
     1 CALLS TO GCG PACKAGE FOR TRANSPORT TIME STEP   4 IN FLOW TIME STEP 559 STRESS PERIOD   1
     5 TOTAL ITERATIONS
  MAXIMUM CONCENTRATION CHANGES FOR EACH ITERATION:
  MAX. CHANGE LAYER,ROW,COL MAX. CHANGE LAYER,ROW,COL MAX. CHANGE LAYER,ROW,COL MAX. CHANGE LAYER,ROW,COL MAX. CHANGE LAYER,ROW,COL
 ------------------------------------------------------------------------------------------------------------------------------------
   0.1801E-01 (  2,  1, 80)  0.3922E-03 (  2,  1, 80)  0.1265E-04 (  3,  1, 78)  0.6250E-06 (  3,  1, 76)  0.1553E-07 (  4,  1, 76)


                                          ================================================
                                                         FROM TIME =   5590.0     TO    5600.0    

 
 SOLVING FOR HEAD 
 FLOW MODEL IS TRANSIENT
 FLOW MODEL CONTAINS CONSTANT-HEAD CELLS


 MAXIMUM STEPSIZE DURING WHICH ANY PARTICLE CANNOT MOVE MORE THAN ONE CELL
 =  5.474    (WHEN MIN. R.F.=1)  AT K=   6, I=   1, J=  74

 MAXIMUM STEPSIZE WHICH MEETS STABILITY CRITERION OF THE ADVECTION TERM
 (FOR PURE FINITE-DIFFERENCE OPTION, MIXELM=0) 
 =  3.605    (WHEN MIN. R.F.=1)  AT K=   2, I=   1, J=  79


 TOTAL NUMBER OF POINT SOURCES/SINKS PRESENT IN THE FLOW MODEL =    62

 MAXIMUM STEPSIZE WHICH MEETS STABILITY CRITERION OF THE SINK & SOURCE TERM
 =  231.2    (WHEN MIN. R.F.=1)  AT K=   2, I=   1, J= 120

 MAXIMUM STEPSIZE WHICH MEETS STABILITY CRITERION OF THE DISPERSION TERM
 =  20.29    (WHEN MIN. R.F.=1)  AT K=   1, I=   1, J=  31


     1 CALLS TO GCG PACKAGE FOR TRANSPORT TIME STEP   1 IN FLOW TIME STEP 560 STRESS PERIOD   1
     6 TOTAL ITERATIONS

 NO OUTPUT CONTROL FOR STRESS PERIOD    1   TIME STEP 560
 
 SOLVING FOR HEAD 
 FLOW MODEL IS TRANSIENT
 FLOW MODEL CONTAINS CONSTANT-HEAD CELLS


 MAXIMUM STEPSIZE DURING WHICH ANY PARTICLE CANNOT MOVE MORE THAN ONE CELL
 =  5.595    (WHEN MIN. R.F.=1)  AT K=   6, I=   1, J=  74

 MAXIMUM STEPSIZE WHICH MEETS STABILITY CRITERION OF THE ADVECTION TERM
 (FOR PURE FINITE-DIFFERENCE OPTION, MIXELM=0) 
 =  3.830    (WHEN MIN. R.F.=1)  AT K=   2, I=   1, J=  79


 TOTAL NUMBER OF POINT SOURCES/SINKS PRESENT IN THE FLOW MODEL =    62

 MAXIMUM STEPSIZE WHICH MEETS STABILITY CRITERION OF THE SINK & SOURCE TERM
 =  221.2    (WHEN MIN. R.F.=1)  AT K=   2, I=   1, J= 120

 MAXIMUM STEPSIZE WHICH MEETS STABILITY CRITERION OF THE DISPERSION TERM
 =  20.29    (WHEN MIN. R.F.=1)  AT K=   1, I=   1, J=  31
     1 CALLS TO GCG PACKAGE FOR TRANSPORT TIME STEP   2 IN FLOW TIME STEP 560 STRESS PERIOD   1
     6 TOTAL ITERATIONS
 
 SOLVING FOR HEAD 
 FLOW MODEL IS TRANSIENT
 FLOW MODEL CONTAINS CONSTANT-HEAD CELLS


 MAXIMUM STEPSIZE DURING WHICH ANY PARTICLE CANNOT MOVE MORE THAN ONE CELL
 =  5.696    (WHEN MIN. R.F.=1)  AT K=   4, I=   1, J=  47

 MAXIMUM STEPSIZE WHICH MEETS STABILITY CRITERION OF THE ADVECTION TERM
 (FOR PURE FINITE-DIFFERENCE OPTION, MIXELM=0) 
 =  3.933    (WHEN MIN. R.F.=1)  AT K=   2, I=   1, J=  78


 TOTAL NUMBER OF POINT SOURCES/SINKS PRESENT IN THE FLOW MODEL =    62

 MAXIMUM STEPSIZE WHICH MEETS STABILITY CRITERION OF THE SINK & SOURCE TERM
 =  215.9    (WHEN MIN. R.F.=1)  AT K=   2, I=   1, J= 120

 MAXIMUM STEPSIZE WHICH MEETS STABILITY CRITERION OF THE DISPERSION TERM
 =  20.29    (WHEN MIN. R.F.=1)  AT K=   1, I=   1, J=  31
     1 CALLS TO GCG PACKAGE FOR TRANSPORT TIME STEP   3 IN FLOW TIME STEP 560 STRESS PERIOD   1
     6 TOTAL ITERATIONS
 
 SOLVING FOR HEAD 
 FLOW MODEL IS TRANSIENT
 FLOW MODEL CONTAINS CONSTANT-HEAD CELLS


 MAXIMUM STEPSIZE DURING WHICH ANY PARTICLE CANNOT MOVE MORE THAN ONE CELL
 =  5.437    (WHEN MIN. R.F.=1)  AT K=   4, I=   1, J=  47

 MAXIMUM STEPSIZE WHICH MEETS STABILITY CRITERION OF THE ADVECTION TERM
 (FOR PURE FINITE-DIFFERENCE OPTION, MIXELM=0) 
 =  3.702    (WHEN MIN. R.F.=1)  AT K=   2, I=   1, J=  78


 TOTAL NUMBER OF POINT SOURCES/SINKS PRESENT IN THE FLOW MODEL =    62

 MAXIMUM STEPSIZE WHICH MEETS STABILITY CRITERION OF THE SINK & SOURCE TERM
 =  209.8    (WHEN MIN. R.F.=1)  AT K=   2, I=   1, J= 120

 MAXIMUM STEPSIZE WHICH MEETS STABILITY CRITERION OF THE DISPERSION TERM
 =  20.29    (WHEN MIN. R.F.=1)  AT K=   1, I=   1, J=  31
     1 CALLS TO GCG PACKAGE FOR TRANSPORT TIME STEP   4 IN FLOW TIME STEP 560 STRESS PERIOD   1
     5 TOTAL ITERATIONS
  MAXIMUM CONCENTRATION CHANGES FOR EACH ITERATION:
  MAX. CHANGE LAYER,ROW,COL MAX. CHANGE LAYER,ROW,COL MAX. CHANGE LAYER,ROW,COL MAX. CHANGE LAYER,ROW,COL MAX. CHANGE LAYER,ROW,COL
 ------------------------------------------------------------------------------------------------------------------------------------
   0.1928E-01 (  2,  1, 39)  0.5798E-03 (  2,  1, 78)  0.1642E-04 (  2,  1, 38)  0.6316E-06 (  3,  1, 38)  0.2360E-07 (  3,  1, 88)


                                          ================================================
                                                         FROM TIME =   5600.0     TO    5610.0    

 
 SOLVING FOR HEAD 
 FLOW MODEL IS TRANSIENT
 FLOW MODEL CONTAINS CONSTANT-HEAD CELLS


 MAXIMUM STEPSIZE DURING WHICH ANY PARTICLE CANNOT MOVE MORE THAN ONE CELL
 =  5.331    (WHEN MIN. R.F.=1)  AT K=   4, I=   1, J=  47

 MAXIMUM STEPSIZE WHICH MEETS STABILITY CRITERION OF THE ADVECTION TERM
 (FOR PURE FINITE-DIFFERENCE OPTION, MIXELM=0) 
 =  3.652    (WHEN MIN. R.F.=1)  AT K=   2, I=   1, J=  78


 TOTAL NUMBER OF POINT SOURCES/SINKS PRESENT IN THE FLOW MODEL =    62

 MAXIMUM STEPSIZE WHICH MEETS STABILITY CRITERION OF THE SINK & SOURCE TERM
 =  214.4    (WHEN MIN. R.F.=1)  AT K=   2, I=   1, J= 120

 MAXIMUM STEPSIZE WHICH MEETS STABILITY CRITERION OF THE DISPERSION TERM
 =  20.29    (WHEN MIN. R.F.=1)  AT K=   1, I=   1, J=  31


     1 CALLS TO GCG PACKAGE FOR TRANSPORT TIME STEP   1 IN FLOW TIME STEP 561 STRESS PERIOD   1
     6 TOTAL ITERATIONS

 NO OUTPUT CONTROL FOR STRESS PERIOD    1   TIME STEP 561
 
 SOLVING FOR HEAD 
 FLOW MODEL IS TRANSIENT
 FLOW MODEL CONTAINS CONSTANT-HEAD CELLS


 MAXIMUM STEPSIZE DURING WHICH ANY PARTICLE CANNOT MOVE MORE THAN ONE CELL
 =  5.239    (WHEN MIN. R.F.=1)  AT K=   4, I=   1, J=  47

 MAXIMUM STEPSIZE WHICH MEETS STABILITY CRITERION OF THE ADVECTION TERM
 (FOR PURE FINITE-DIFFERENCE OPTION, MIXELM=0) 
 =  3.661    (WHEN MIN. R.F.=1)  AT K=   2, I=   1, J=  78


 TOTAL NUMBER OF POINT SOURCES/SINKS PRESENT IN THE FLOW MODEL =    62

 MAXIMUM STEPSIZE WHICH MEETS STABILITY CRITERION OF THE SINK & SOURCE TERM
 =  207.8    (WHEN MIN. R.F.=1)  AT K=   2, I=   1, J= 120

 MAXIMUM STEPSIZE WHICH MEETS STABILITY CRITERION OF THE DISPERSION TERM
 =  20.29    (WHEN MIN. R.F.=1)  AT K=   1, I=   1, J=  31
     1 CALLS TO GCG PACKAGE FOR TRANSPORT TIME STEP   2 IN FLOW TIME STEP 561 STRESS PERIOD   1
     6 TOTAL ITERATIONS
 
 SOLVING FOR HEAD 
 FLOW MODEL IS TRANSIENT
 FLOW MODEL CONTAINS CONSTANT-HEAD CELLS


 MAXIMUM STEPSIZE DURING WHICH ANY PARTICLE CANNOT MOVE MORE THAN ONE CELL
 =  5.228    (WHEN MIN. R.F.=1)  AT K=   4, I=   1, J=  47

 MAXIMUM STEPSIZE WHICH MEETS STABILITY CRITERION OF THE ADVECTION TERM
 (FOR PURE FINITE-DIFFERENCE OPTION, MIXELM=0) 
 =  3.783    (WHEN MIN. R.F.=1)  AT K=   2, I=   1, J=  78


 TOTAL NUMBER OF POINT SOURCES/SINKS PRESENT IN THE FLOW MODEL =    62

 MAXIMUM STEPSIZE WHICH MEETS STABILITY CRITERION OF THE SINK & SOURCE TERM
 =  209.6    (WHEN MIN. R.F.=1)  AT K=   2, I=   1, J= 120

 MAXIMUM STEPSIZE WHICH MEETS STABILITY CRITERION OF THE DISPERSION TERM
 =  20.29    (WHEN MIN. R.F.=1)  AT K=   1, I=   1, J=  31
     1 CALLS TO GCG PACKAGE FOR TRANSPORT TIME STEP   3 IN FLOW TIME STEP 561 STRESS PERIOD   1
     6 TOTAL ITERATIONS
 
 SOLVING FOR HEAD 
 FLOW MODEL IS TRANSIENT
 FLOW MODEL CONTAINS CONSTANT-HEAD CELLS


 MAXIMUM STEPSIZE DURING WHICH ANY PARTICLE CANNOT MOVE MORE THAN ONE CELL
 =  5.290    (WHEN MIN. R.F.=1)  AT K=   4, I=   1, J=  47

 MAXIMUM STEPSIZE WHICH MEETS STABILITY CRITERION OF THE ADVECTION TERM
 (FOR PURE FINITE-DIFFERENCE OPTION, MIXELM=0) 
 =  3.785    (WHEN MIN. R.F.=1)  AT K=   2, I=   1, J=  41


 TOTAL NUMBER OF POINT SOURCES/SINKS PRESENT IN THE FLOW MODEL =    62

 MAXIMUM STEPSIZE WHICH MEETS STABILITY CRITERION OF THE SINK & SOURCE TERM
 =  207.7    (WHEN MIN. R.F.=1)  AT K=   2, I=   1, J= 120

 MAXIMUM STEPSIZE WHICH MEETS STABILITY CRITERION OF THE DISPERSION TERM
 =  20.29    (WHEN MIN. R.F.=1)  AT K=   1, I=   1, J=  31
     1 CALLS TO GCG PACKAGE FOR TRANSPORT TIME STEP   4 IN FLOW TIME STEP 561 STRESS PERIOD   1
     5 TOTAL ITERATIONS
  MAXIMUM CONCENTRATION CHANGES FOR EACH ITERATION:
  MAX. CHANGE LAYER,ROW,COL MAX. CHANGE LAYER,ROW,COL MAX. CHANGE LAYER,ROW,COL MAX. CHANGE LAYER,ROW,COL MAX. CHANGE LAYER,ROW,COL
 ------------------------------------------------------------------------------------------------------------------------------------
   0.2138E-01 (  2,  1, 79)  0.6562E-03 (  2,  1, 77)  0.2296E-04 (  3,  1, 77)  0.7802E-06 (  3,  1, 44)  0.2691E-07 (  5,  1, 80)


                                          ================================================
                                                         FROM TIME =   5610.0     TO    5620.0    

 
 SOLVING FOR HEAD 
 FLOW MODEL IS TRANSIENT
 FLOW MODEL CONTAINS CONSTANT-HEAD CELLS


 MAXIMUM STEPSIZE DURING WHICH ANY PARTICLE CANNOT MOVE MORE THAN ONE CELL
 =  5.341    (WHEN MIN. R.F.=1)  AT K=   5, I=   1, J=  47

 MAXIMUM STEPSIZE WHICH MEETS STABILITY CRITERION OF THE ADVECTION TERM
 (FOR PURE FINITE-DIFFERENCE OPTION, MIXELM=0) 
 =  3.770    (WHEN MIN. R.F.=1)  AT K=   2, I=   1, J=  41


 TOTAL NUMBER OF POINT SOURCES/SINKS PRESENT IN THE FLOW MODEL =    62

 MAXIMUM STEPSIZE WHICH MEETS STABILITY CRITERION OF THE SINK & SOURCE TERM
 =  214.7    (WHEN MIN. R.F.=1)  AT K=   2, I=   1, J= 120

 MAXIMUM STEPSIZE WHICH MEETS STABILITY CRITERION OF THE DISPERSION TERM
 =  20.29    (WHEN MIN. R.F.=1)  AT K=   1, I=   1, J=  31


     1 CALLS TO GCG PACKAGE FOR TRANSPORT TIME STEP   1 IN FLOW TIME STEP 562 STRESS PERIOD   1
     6 TOTAL ITERATIONS

 NO OUTPUT CONTROL FOR STRESS PERIOD    1   TIME STEP 562
 
 SOLVING FOR HEAD 
 FLOW MODEL IS TRANSIENT
 FLOW MODEL CONTAINS CONSTANT-HEAD CELLS


 MAXIMUM STEPSIZE DURING WHICH ANY PARTICLE CANNOT MOVE MORE THAN ONE CELL
 =  5.404    (WHEN MIN. R.F.=1)  AT K=   5, I=   1, J=  47

 MAXIMUM STEPSIZE WHICH MEETS STABILITY CRITERION OF THE ADVECTION TERM
 (FOR PURE FINITE-DIFFERENCE OPTION, MIXELM=0) 
 =  3.849    (WHEN MIN. R.F.=1)  AT K=   2, I=   1, J=  41


 TOTAL NUMBER OF POINT SOURCES/SINKS PRESENT IN THE FLOW MODEL =    62

 MAXIMUM STEPSIZE WHICH MEETS STABILITY CRITERION OF THE SINK & SOURCE TERM
 =  207.3    (WHEN MIN. R.F.=1)  AT K=   2, I=   1, J= 120

 MAXIMUM STEPSIZE WHICH MEETS STABILITY CRITERION OF THE DISPERSION TERM
 =  20.29    (WHEN MIN. R.F.=1)  AT K=   1, I=   1, J=  31
     1 CALLS TO GCG PACKAGE FOR TRANSPORT TIME STEP   2 IN FLOW TIME STEP 562 STRESS PERIOD   1
     6 TOTAL ITERATIONS
 
 SOLVING FOR HEAD 
 FLOW MODEL IS TRANSIENT
 FLOW MODEL CONTAINS CONSTANT-HEAD CELLS


 MAXIMUM STEPSIZE DURING WHICH ANY PARTICLE CANNOT MOVE MORE THAN ONE CELL
 =  5.513    (WHEN MIN. R.F.=1)  AT K=   5, I=   1, J=  47

 MAXIMUM STEPSIZE WHICH MEETS STABILITY CRITERION OF THE ADVECTION TERM
 (FOR PURE FINITE-DIFFERENCE OPTION, MIXELM=0) 
 =  3.838    (WHEN MIN. R.F.=1)  AT K=   2, I=   1, J=  77


 TOTAL NUMBER OF POINT SOURCES/SINKS PRESENT IN THE FLOW MODEL =    62

 MAXIMUM STEPSIZE WHICH MEETS STABILITY CRITERION OF THE SINK & SOURCE TERM
 =  208.4    (WHEN MIN. R.F.=1)  AT K=   2, I=   1, J= 120

 MAXIMUM STEPSIZE WHICH MEETS STABILITY CRITERION OF THE DISPERSION TERM
 =  20.29    (WHEN MIN. R.F.=1)  AT K=   1, I=   1, J=  31
     1 CALLS TO GCG PACKAGE FOR TRANSPORT TIME STEP   3 IN FLOW TIME STEP 562 STRESS PERIOD   1
     6 TOTAL ITERATIONS
 
 SOLVING FOR HEAD 
 FLOW MODEL IS TRANSIENT
 FLOW MODEL CONTAINS CONSTANT-HEAD CELLS


 MAXIMUM STEPSIZE DURING WHICH ANY PARTICLE CANNOT MOVE MORE THAN ONE CELL
 =  5.666    (WHEN MIN. R.F.=1)  AT K=   6, I=   1, J=  47

 MAXIMUM STEPSIZE WHICH MEETS STABILITY CRITERION OF THE ADVECTION TERM
 (FOR PURE FINITE-DIFFERENCE OPTION, MIXELM=0) 
 =  3.824    (WHEN MIN. R.F.=1)  AT K=   2, I=   1, J=  42


 TOTAL NUMBER OF POINT SOURCES/SINKS PRESENT IN THE FLOW MODEL =    62

 MAXIMUM STEPSIZE WHICH MEETS STABILITY CRITERION OF THE SINK & SOURCE TERM
 =  206.5    (WHEN MIN. R.F.=1)  AT K=   2, I=   1, J= 120

 MAXIMUM STEPSIZE WHICH MEETS STABILITY CRITERION OF THE DISPERSION TERM
 =  20.29    (WHEN MIN. R.F.=1)  AT K=   1, I=   1, J=  31
     1 CALLS TO GCG PACKAGE FOR TRANSPORT TIME STEP   4 IN FLOW TIME STEP 562 STRESS PERIOD   1
     5 TOTAL ITERATIONS
  MAXIMUM CONCENTRATION CHANGES FOR EACH ITERATION:
  MAX. CHANGE LAYER,ROW,COL MAX. CHANGE LAYER,ROW,COL MAX. CHANGE LAYER,ROW,COL MAX. CHANGE LAYER,ROW,COL MAX. CHANGE LAYER,ROW,COL
 ------------------------------------------------------------------------------------------------------------------------------------
   0.1684E-01 (  2,  1, 78)  0.3937E-03 (  2,  1, 75)  0.1142E-04 (  2,  1, 79)  0.5716E-06 (  3,  1, 45)  0.1572E-07 (  4,  1, 45)


                                          ================================================
                                                         FROM TIME =   5620.0     TO    5630.0    

 
 SOLVING FOR HEAD 
 FLOW MODEL IS TRANSIENT
 FLOW MODEL CONTAINS CONSTANT-HEAD CELLS


 MAXIMUM STEPSIZE DURING WHICH ANY PARTICLE CANNOT MOVE MORE THAN ONE CELL
 =  5.712    (WHEN MIN. R.F.=1)  AT K=   6, I=   1, J=  47

 MAXIMUM STEPSIZE WHICH MEETS STABILITY CRITERION OF THE ADVECTION TERM
 (FOR PURE FINITE-DIFFERENCE OPTION, MIXELM=0) 
 =  3.757    (WHEN MIN. R.F.=1)  AT K=   2, I=   1, J=  42


 TOTAL NUMBER OF POINT SOURCES/SINKS PRESENT IN THE FLOW MODEL =    62

 MAXIMUM STEPSIZE WHICH MEETS STABILITY CRITERION OF THE SINK & SOURCE TERM
 =  211.6    (WHEN MIN. R.F.=1)  AT K=   2, I=   1, J= 120

 MAXIMUM STEPSIZE WHICH MEETS STABILITY CRITERION OF THE DISPERSION TERM
 =  20.29    (WHEN MIN. R.F.=1)  AT K=   1, I=   1, J=  31


     1 CALLS TO GCG PACKAGE FOR TRANSPORT TIME STEP   1 IN FLOW TIME STEP 563 STRESS PERIOD   1
     6 TOTAL ITERATIONS

 NO OUTPUT CONTROL FOR STRESS PERIOD    1   TIME STEP 563
 
 SOLVING FOR HEAD 
 FLOW MODEL IS TRANSIENT
 FLOW MODEL CONTAINS CONSTANT-HEAD CELLS


 MAXIMUM STEPSIZE DURING WHICH ANY PARTICLE CANNOT MOVE MORE THAN ONE CELL
 =  5.831    (WHEN MIN. R.F.=1)  AT K=   6, I=   1, J=  47

 MAXIMUM STEPSIZE WHICH MEETS STABILITY CRITERION OF THE ADVECTION TERM
 (FOR PURE FINITE-DIFFERENCE OPTION, MIXELM=0) 
 =  3.726    (WHEN MIN. R.F.=1)  AT K=   2, I=   1, J=  42


 TOTAL NUMBER OF POINT SOURCES/SINKS PRESENT IN THE FLOW MODEL =    62

 MAXIMUM STEPSIZE WHICH MEETS STABILITY CRITERION OF THE SINK & SOURCE TERM
 =  201.9    (WHEN MIN. R.F.=1)  AT K=   2, I=   1, J= 120

 MAXIMUM STEPSIZE WHICH MEETS STABILITY CRITERION OF THE DISPERSION TERM
 =  20.29    (WHEN MIN. R.F.=1)  AT K=   1, I=   1, J=  31
     1 CALLS TO GCG PACKAGE FOR TRANSPORT TIME STEP   2 IN FLOW TIME STEP 563 STRESS PERIOD   1
     6 TOTAL ITERATIONS
 
 SOLVING FOR HEAD 
 FLOW MODEL IS TRANSIENT
 FLOW MODEL CONTAINS CONSTANT-HEAD CELLS


 MAXIMUM STEPSIZE DURING WHICH ANY PARTICLE CANNOT MOVE MORE THAN ONE CELL
 =  5.977    (WHEN MIN. R.F.=1)  AT K=   7, I=   1, J=  47

 MAXIMUM STEPSIZE WHICH MEETS STABILITY CRITERION OF THE ADVECTION TERM
 (FOR PURE FINITE-DIFFERENCE OPTION, MIXELM=0) 
 =  3.803    (WHEN MIN. R.F.=1)  AT K=   2, I=   1, J=  42


 TOTAL NUMBER OF POINT SOURCES/SINKS PRESENT IN THE FLOW MODEL =    62

 MAXIMUM STEPSIZE WHICH MEETS STABILITY CRITERION OF THE SINK & SOURCE TERM
 =  201.4    (WHEN MIN. R.F.=1)  AT K=   2, I=   1, J= 120

 MAXIMUM STEPSIZE WHICH MEETS STABILITY CRITERION OF THE DISPERSION TERM
 =  20.29    (WHEN MIN. R.F.=1)  AT K=   1, I=   1, J=  31
     1 CALLS TO GCG PACKAGE FOR TRANSPORT TIME STEP   3 IN FLOW TIME STEP 563 STRESS PERIOD   1
     6 TOTAL ITERATIONS
 
 SOLVING FOR HEAD 
 FLOW MODEL IS TRANSIENT
 FLOW MODEL CONTAINS CONSTANT-HEAD CELLS


 MAXIMUM STEPSIZE DURING WHICH ANY PARTICLE CANNOT MOVE MORE THAN ONE CELL
 =  6.074    (WHEN MIN. R.F.=1)  AT K=   7, I=   1, J=  47

 MAXIMUM STEPSIZE WHICH MEETS STABILITY CRITERION OF THE ADVECTION TERM
 (FOR PURE FINITE-DIFFERENCE OPTION, MIXELM=0) 
 =  4.052    (WHEN MIN. R.F.=1)  AT K=   2, I=   1, J=  42


 TOTAL NUMBER OF POINT SOURCES/SINKS PRESENT IN THE FLOW MODEL =    62

 MAXIMUM STEPSIZE WHICH MEETS STABILITY CRITERION OF THE SINK & SOURCE TERM
 =  198.7    (WHEN MIN. R.F.=1)  AT K=   2, I=   1, J= 120

 MAXIMUM STEPSIZE WHICH MEETS STABILITY CRITERION OF THE DISPERSION TERM
 =  20.29    (WHEN MIN. R.F.=1)  AT K=   1, I=   1, J=  31
     1 CALLS TO GCG PACKAGE FOR TRANSPORT TIME STEP   4 IN FLOW TIME STEP 563 STRESS PERIOD   1
     5 TOTAL ITERATIONS
  MAXIMUM CONCENTRATION CHANGES FOR EACH ITERATION:
  MAX. CHANGE LAYER,ROW,COL MAX. CHANGE LAYER,ROW,COL MAX. CHANGE LAYER,ROW,COL MAX. CHANGE LAYER,ROW,COL MAX. CHANGE LAYER,ROW,COL
 ------------------------------------------------------------------------------------------------------------------------------------
   0.1689E-01 (  2,  1, 41)  0.4443E-03 (  2,  1, 76)  0.1163E-04 (  3,  1, 43)  0.4726E-06 (  3,  1, 45)  0.1315E-07 (  4,  1, 75)


                                          ================================================
                                                         FROM TIME =   5630.0     TO    5640.0    

 
 SOLVING FOR HEAD 
 FLOW MODEL IS TRANSIENT
 FLOW MODEL CONTAINS CONSTANT-HEAD CELLS


 MAXIMUM STEPSIZE DURING WHICH ANY PARTICLE CANNOT MOVE MORE THAN ONE CELL
 =  6.142    (WHEN MIN. R.F.=1)  AT K=   7, I=   1, J=  47

 MAXIMUM STEPSIZE WHICH MEETS STABILITY CRITERION OF THE ADVECTION TERM
 (FOR PURE FINITE-DIFFERENCE OPTION, MIXELM=0) 
 =  4.114    (WHEN MIN. R.F.=1)  AT K=   2, I=   1, J=  43


 TOTAL NUMBER OF POINT SOURCES/SINKS PRESENT IN THE FLOW MODEL =    62

 MAXIMUM STEPSIZE WHICH MEETS STABILITY CRITERION OF THE SINK & SOURCE TERM
 =  203.6    (WHEN MIN. R.F.=1)  AT K=   2, I=   1, J= 120

 MAXIMUM STEPSIZE WHICH MEETS STABILITY CRITERION OF THE DISPERSION TERM
 =  20.29    (WHEN MIN. R.F.=1)  AT K=   1, I=   1, J=  31


     1 CALLS TO GCG PACKAGE FOR TRANSPORT TIME STEP   1 IN FLOW TIME STEP 564 STRESS PERIOD   1
     6 TOTAL ITERATIONS

 NO OUTPUT CONTROL FOR STRESS PERIOD    1   TIME STEP 564
 
 SOLVING FOR HEAD 
 FLOW MODEL IS TRANSIENT
 FLOW MODEL CONTAINS CONSTANT-HEAD CELLS


 MAXIMUM STEPSIZE DURING WHICH ANY PARTICLE CANNOT MOVE MORE THAN ONE CELL
 =  6.291    (WHEN MIN. R.F.=1)  AT K=   8, I=   1, J=  47

 MAXIMUM STEPSIZE WHICH MEETS STABILITY CRITERION OF THE ADVECTION TERM
 (FOR PURE FINITE-DIFFERENCE OPTION, MIXELM=0) 
 =  3.855    (WHEN MIN. R.F.=1)  AT K=   2, I=   1, J=  43


 TOTAL NUMBER OF POINT SOURCES/SINKS PRESENT IN THE FLOW MODEL =    62

 MAXIMUM STEPSIZE WHICH MEETS STABILITY CRITERION OF THE SINK & SOURCE TERM
 =  195.6    (WHEN MIN. R.F.=1)  AT K=   2, I=   1, J= 120

 MAXIMUM STEPSIZE WHICH MEETS STABILITY CRITERION OF THE DISPERSION TERM
 =  20.29    (WHEN MIN. R.F.=1)  AT K=   1, I=   1, J=  31
     1 CALLS TO GCG PACKAGE FOR TRANSPORT TIME STEP   2 IN FLOW TIME STEP 564 STRESS PERIOD   1
     6 TOTAL ITERATIONS
 
 SOLVING FOR HEAD 
 FLOW MODEL IS TRANSIENT
 FLOW MODEL CONTAINS CONSTANT-HEAD CELLS


 MAXIMUM STEPSIZE DURING WHICH ANY PARTICLE CANNOT MOVE MORE THAN ONE CELL
 =  6.402    (WHEN MIN. R.F.=1)  AT K=   8, I=   1, J=  47

 MAXIMUM STEPSIZE WHICH MEETS STABILITY CRITERION OF THE ADVECTION TERM
 (FOR PURE FINITE-DIFFERENCE OPTION, MIXELM=0) 
 =  3.775    (WHEN MIN. R.F.=1)  AT K=   2, I=   1, J=  43


 TOTAL NUMBER OF POINT SOURCES/SINKS PRESENT IN THE FLOW MODEL =    62

 MAXIMUM STEPSIZE WHICH MEETS STABILITY CRITERION OF THE SINK & SOURCE TERM
 =  194.4    (WHEN MIN. R.F.=1)  AT K=   2, I=   1, J= 120

 MAXIMUM STEPSIZE WHICH MEETS STABILITY CRITERION OF THE DISPERSION TERM
 =  20.29    (WHEN MIN. R.F.=1)  AT K=   1, I=   1, J=  31
     1 CALLS TO GCG PACKAGE FOR TRANSPORT TIME STEP   3 IN FLOW TIME STEP 564 STRESS PERIOD   1
     6 TOTAL ITERATIONS
 
 SOLVING FOR HEAD 
 FLOW MODEL IS TRANSIENT
 FLOW MODEL CONTAINS CONSTANT-HEAD CELLS


 MAXIMUM STEPSIZE DURING WHICH ANY PARTICLE CANNOT MOVE MORE THAN ONE CELL
 =  6.463    (WHEN MIN. R.F.=1)  AT K=   4, I=   1, J=  48

 MAXIMUM STEPSIZE WHICH MEETS STABILITY CRITERION OF THE ADVECTION TERM
 (FOR PURE FINITE-DIFFERENCE OPTION, MIXELM=0) 
 =  3.831    (WHEN MIN. R.F.=1)  AT K=   2, I=   1, J=  43


 TOTAL NUMBER OF POINT SOURCES/SINKS PRESENT IN THE FLOW MODEL =    62

 MAXIMUM STEPSIZE WHICH MEETS STABILITY CRITERION OF THE SINK & SOURCE TERM
 =  191.8    (WHEN MIN. R.F.=1)  AT K=   2, I=   1, J= 120

 MAXIMUM STEPSIZE WHICH MEETS STABILITY CRITERION OF THE DISPERSION TERM
 =  20.29    (WHEN MIN. R.F.=1)  AT K=   1, I=   1, J=  31
     1 CALLS TO GCG PACKAGE FOR TRANSPORT TIME STEP   4 IN FLOW TIME STEP 564 STRESS PERIOD   1
     5 TOTAL ITERATIONS
  MAXIMUM CONCENTRATION CHANGES FOR EACH ITERATION:
  MAX. CHANGE LAYER,ROW,COL MAX. CHANGE LAYER,ROW,COL MAX. CHANGE LAYER,ROW,COL MAX. CHANGE LAYER,ROW,COL MAX. CHANGE LAYER,ROW,COL
 ------------------------------------------------------------------------------------------------------------------------------------
   0.1189E-01 (  2,  1, 77)  0.1650E-03 (  2,  1, 77)  0.4205E-05 (  2,  1, 78)  0.1097E-06 (  3,  1, 78)  0.1611E-08 (  3,  1, 33)


                                          ================================================
                                                         FROM TIME =   5640.0     TO    5650.0    

 
 SOLVING FOR HEAD 
 FLOW MODEL IS TRANSIENT
 FLOW MODEL CONTAINS CONSTANT-HEAD CELLS


 MAXIMUM STEPSIZE DURING WHICH ANY PARTICLE CANNOT MOVE MORE THAN ONE CELL
 =  6.485    (WHEN MIN. R.F.=1)  AT K=   4, I=   1, J=  48

 MAXIMUM STEPSIZE WHICH MEETS STABILITY CRITERION OF THE ADVECTION TERM
 (FOR PURE FINITE-DIFFERENCE OPTION, MIXELM=0) 
 =  3.877    (WHEN MIN. R.F.=1)  AT K=   2, I=   1, J=  43


 TOTAL NUMBER OF POINT SOURCES/SINKS PRESENT IN THE FLOW MODEL =    62

 MAXIMUM STEPSIZE WHICH MEETS STABILITY CRITERION OF THE SINK & SOURCE TERM
 =  199.2    (WHEN MIN. R.F.=1)  AT K=   2, I=   1, J= 120

 MAXIMUM STEPSIZE WHICH MEETS STABILITY CRITERION OF THE DISPERSION TERM
 =  20.29    (WHEN MIN. R.F.=1)  AT K=   1, I=   1, J=  31


     1 CALLS TO GCG PACKAGE FOR TRANSPORT TIME STEP   1 IN FLOW TIME STEP 565 STRESS PERIOD   1
     6 TOTAL ITERATIONS

 NO OUTPUT CONTROL FOR STRESS PERIOD    1   TIME STEP 565
 
 SOLVING FOR HEAD 
 FLOW MODEL IS TRANSIENT
 FLOW MODEL CONTAINS CONSTANT-HEAD CELLS


 MAXIMUM STEPSIZE DURING WHICH ANY PARTICLE CANNOT MOVE MORE THAN ONE CELL
 =  6.523    (WHEN MIN. R.F.=1)  AT K=  28, I=   1, J=  52

 MAXIMUM STEPSIZE WHICH MEETS STABILITY CRITERION OF THE ADVECTION TERM
 (FOR PURE FINITE-DIFFERENCE OPTION, MIXELM=0) 
 =  4.116    (WHEN MIN. R.F.=1)  AT K=   2, I=   1, J=  43


 TOTAL NUMBER OF POINT SOURCES/SINKS PRESENT IN THE FLOW MODEL =    62

 MAXIMUM STEPSIZE WHICH MEETS STABILITY CRITERION OF THE SINK & SOURCE TERM
 =  189.9    (WHEN MIN. R.F.=1)  AT K=   2, I=   1, J= 120

 MAXIMUM STEPSIZE WHICH MEETS STABILITY CRITERION OF THE DISPERSION TERM
 =  20.29    (WHEN MIN. R.F.=1)  AT K=   1, I=   1, J=  31
     1 CALLS TO GCG PACKAGE FOR TRANSPORT TIME STEP   2 IN FLOW TIME STEP 565 STRESS PERIOD   1
     6 TOTAL ITERATIONS
 
 SOLVING FOR HEAD 
 FLOW MODEL IS TRANSIENT
 FLOW MODEL CONTAINS CONSTANT-HEAD CELLS


 MAXIMUM STEPSIZE DURING WHICH ANY PARTICLE CANNOT MOVE MORE THAN ONE CELL
 =  6.520    (WHEN MIN. R.F.=1)  AT K=  28, I=   1, J=  52

 MAXIMUM STEPSIZE WHICH MEETS STABILITY CRITERION OF THE ADVECTION TERM
 (FOR PURE FINITE-DIFFERENCE OPTION, MIXELM=0) 
 =  4.225    (WHEN MIN. R.F.=1)  AT K=   2, I=   1, J=  44


 TOTAL NUMBER OF POINT SOURCES/SINKS PRESENT IN THE FLOW MODEL =    62

 MAXIMUM STEPSIZE WHICH MEETS STABILITY CRITERION OF THE SINK & SOURCE TERM
 =  187.3    (WHEN MIN. R.F.=1)  AT K=   2, I=   1, J= 120

 MAXIMUM STEPSIZE WHICH MEETS STABILITY CRITERION OF THE DISPERSION TERM
 =  20.29    (WHEN MIN. R.F.=1)  AT K=   1, I=   1, J=  31
     1 CALLS TO GCG PACKAGE FOR TRANSPORT TIME STEP   3 IN FLOW TIME STEP 565 STRESS PERIOD   1
     6 TOTAL ITERATIONS
 
 SOLVING FOR HEAD 
 FLOW MODEL IS TRANSIENT
 FLOW MODEL CONTAINS CONSTANT-HEAD CELLS


 MAXIMUM STEPSIZE DURING WHICH ANY PARTICLE CANNOT MOVE MORE THAN ONE CELL
 =  6.178    (WHEN MIN. R.F.=1)  AT K=   4, I=   1, J=  74

 MAXIMUM STEPSIZE WHICH MEETS STABILITY CRITERION OF THE ADVECTION TERM
 (FOR PURE FINITE-DIFFERENCE OPTION, MIXELM=0) 
 =  4.001    (WHEN MIN. R.F.=1)  AT K=   2, I=   1, J=  44


 TOTAL NUMBER OF POINT SOURCES/SINKS PRESENT IN THE FLOW MODEL =    62

 MAXIMUM STEPSIZE WHICH MEETS STABILITY CRITERION OF THE SINK & SOURCE TERM
 =  182.6    (WHEN MIN. R.F.=1)  AT K=   2, I=   1, J= 120

 MAXIMUM STEPSIZE WHICH MEETS STABILITY CRITERION OF THE DISPERSION TERM
 =  20.29    (WHEN MIN. R.F.=1)  AT K=   1, I=   1, J=  31
     1 CALLS TO GCG PACKAGE FOR TRANSPORT TIME STEP   4 IN FLOW TIME STEP 565 STRESS PERIOD   1
     5 TOTAL ITERATIONS
  MAXIMUM CONCENTRATION CHANGES FOR EACH ITERATION:
  MAX. CHANGE LAYER,ROW,COL MAX. CHANGE LAYER,ROW,COL MAX. CHANGE LAYER,ROW,COL MAX. CHANGE LAYER,ROW,COL MAX. CHANGE LAYER,ROW,COL
 ------------------------------------------------------------------------------------------------------------------------------------
   0.1409E-01 (  2,  1, 83)  0.2357E-03 (  2,  1, 83)  0.5124E-05 (  2,  1, 84)  0.1411E-06 (  3,  1, 84)  0.3142E-08 (  3,  1, 33)


                                          ================================================
                                                         FROM TIME =   5650.0     TO    5660.0    

 
 SOLVING FOR HEAD 
 FLOW MODEL IS TRANSIENT
 FLOW MODEL CONTAINS CONSTANT-HEAD CELLS


 MAXIMUM STEPSIZE DURING WHICH ANY PARTICLE CANNOT MOVE MORE THAN ONE CELL
 =  6.029    (WHEN MIN. R.F.=1)  AT K=   4, I=   1, J=  74

 MAXIMUM STEPSIZE WHICH MEETS STABILITY CRITERION OF THE ADVECTION TERM
 (FOR PURE FINITE-DIFFERENCE OPTION, MIXELM=0) 
 =  3.969    (WHEN MIN. R.F.=1)  AT K=   2, I=   1, J=  44


 TOTAL NUMBER OF POINT SOURCES/SINKS PRESENT IN THE FLOW MODEL =    62

 MAXIMUM STEPSIZE WHICH MEETS STABILITY CRITERION OF THE SINK & SOURCE TERM
 =  187.2    (WHEN MIN. R.F.=1)  AT K=   2, I=   1, J= 120

 MAXIMUM STEPSIZE WHICH MEETS STABILITY CRITERION OF THE DISPERSION TERM
 =  20.29    (WHEN MIN. R.F.=1)  AT K=   1, I=   1, J=  31


     1 CALLS TO GCG PACKAGE FOR TRANSPORT TIME STEP   1 IN FLOW TIME STEP 566 STRESS PERIOD   1
     6 TOTAL ITERATIONS

 NO OUTPUT CONTROL FOR STRESS PERIOD    1   TIME STEP 566
 
 SOLVING FOR HEAD 
 FLOW MODEL IS TRANSIENT
 FLOW MODEL CONTAINS CONSTANT-HEAD CELLS


 MAXIMUM STEPSIZE DURING WHICH ANY PARTICLE CANNOT MOVE MORE THAN ONE CELL
 =  5.685    (WHEN MIN. R.F.=1)  AT K=   4, I=   1, J=  74

 MAXIMUM STEPSIZE WHICH MEETS STABILITY CRITERION OF THE ADVECTION TERM
 (FOR PURE FINITE-DIFFERENCE OPTION, MIXELM=0) 
 =  3.964    (WHEN MIN. R.F.=1)  AT K=   2, I=   1, J=  44


 TOTAL NUMBER OF POINT SOURCES/SINKS PRESENT IN THE FLOW MODEL =    62

 MAXIMUM STEPSIZE WHICH MEETS STABILITY CRITERION OF THE SINK & SOURCE TERM
 =  177.1    (WHEN MIN. R.F.=1)  AT K=   2, I=   1, J= 120

 MAXIMUM STEPSIZE WHICH MEETS STABILITY CRITERION OF THE DISPERSION TERM
 =  20.29    (WHEN MIN. R.F.=1)  AT K=   1, I=   1, J=  31
     1 CALLS TO GCG PACKAGE FOR TRANSPORT TIME STEP   2 IN FLOW TIME STEP 566 STRESS PERIOD   1
     6 TOTAL ITERATIONS
 
 SOLVING FOR HEAD 
 FLOW MODEL IS TRANSIENT
 FLOW MODEL CONTAINS CONSTANT-HEAD CELLS


 MAXIMUM STEPSIZE DURING WHICH ANY PARTICLE CANNOT MOVE MORE THAN ONE CELL
 =  5.413    (WHEN MIN. R.F.=1)  AT K=   4, I=   1, J=  74

 MAXIMUM STEPSIZE WHICH MEETS STABILITY CRITERION OF THE ADVECTION TERM
 (FOR PURE FINITE-DIFFERENCE OPTION, MIXELM=0) 
 =  3.960    (WHEN MIN. R.F.=1)  AT K=   2, I=   1, J=  81


 TOTAL NUMBER OF POINT SOURCES/SINKS PRESENT IN THE FLOW MODEL =    62

 MAXIMUM STEPSIZE WHICH MEETS STABILITY CRITERION OF THE SINK & SOURCE TERM
 =  180.2    (WHEN MIN. R.F.=1)  AT K=   2, I=   1, J= 120

 MAXIMUM STEPSIZE WHICH MEETS STABILITY CRITERION OF THE DISPERSION TERM
 =  20.29    (WHEN MIN. R.F.=1)  AT K=   1, I=   1, J=  31
     1 CALLS TO GCG PACKAGE FOR TRANSPORT TIME STEP   3 IN FLOW TIME STEP 566 STRESS PERIOD   1
     6 TOTAL ITERATIONS
 
 SOLVING FOR HEAD 
 FLOW MODEL IS TRANSIENT
 FLOW MODEL CONTAINS CONSTANT-HEAD CELLS


 MAXIMUM STEPSIZE DURING WHICH ANY PARTICLE CANNOT MOVE MORE THAN ONE CELL
 =  5.210    (WHEN MIN. R.F.=1)  AT K=   4, I=   1, J=  74

 MAXIMUM STEPSIZE WHICH MEETS STABILITY CRITERION OF THE ADVECTION TERM
 (FOR PURE FINITE-DIFFERENCE OPTION, MIXELM=0) 
 =  3.858    (WHEN MIN. R.F.=1)  AT K=   2, I=   1, J=  81


 TOTAL NUMBER OF POINT SOURCES/SINKS PRESENT IN THE FLOW MODEL =    62

 MAXIMUM STEPSIZE WHICH MEETS STABILITY CRITERION OF THE SINK & SOURCE TERM
 =  179.4    (WHEN MIN. R.F.=1)  AT K=   2, I=   1, J= 120

 MAXIMUM STEPSIZE WHICH MEETS STABILITY CRITERION OF THE DISPERSION TERM
 =  20.29    (WHEN MIN. R.F.=1)  AT K=   1, I=   1, J=  31
     1 CALLS TO GCG PACKAGE FOR TRANSPORT TIME STEP   4 IN FLOW TIME STEP 566 STRESS PERIOD   1
     5 TOTAL ITERATIONS
  MAXIMUM CONCENTRATION CHANGES FOR EACH ITERATION:
  MAX. CHANGE LAYER,ROW,COL MAX. CHANGE LAYER,ROW,COL MAX. CHANGE LAYER,ROW,COL MAX. CHANGE LAYER,ROW,COL MAX. CHANGE LAYER,ROW,COL
 ------------------------------------------------------------------------------------------------------------------------------------
   0.1304E-01 (  2,  1, 82)  0.2406E-03 (  2,  1, 82)  0.5220E-05 (  2,  1, 83)  0.1161E-06 (  3,  1, 83)  0.2279E-08 (  4,  1, 46)


                                          ================================================
                                                         FROM TIME =   5660.0     TO    5670.0    

 
 SOLVING FOR HEAD 
 FLOW MODEL IS TRANSIENT
 FLOW MODEL CONTAINS CONSTANT-HEAD CELLS


 MAXIMUM STEPSIZE DURING WHICH ANY PARTICLE CANNOT MOVE MORE THAN ONE CELL
 =  5.153    (WHEN MIN. R.F.=1)  AT K=   4, I=   1, J=  74

 MAXIMUM STEPSIZE WHICH MEETS STABILITY CRITERION OF THE ADVECTION TERM
 (FOR PURE FINITE-DIFFERENCE OPTION, MIXELM=0) 
 =  3.890    (WHEN MIN. R.F.=1)  AT K=   2, I=   1, J=  81


 TOTAL NUMBER OF POINT SOURCES/SINKS PRESENT IN THE FLOW MODEL =    62

 MAXIMUM STEPSIZE WHICH MEETS STABILITY CRITERION OF THE SINK & SOURCE TERM
 =  183.4    (WHEN MIN. R.F.=1)  AT K=   2, I=   1, J= 120

 MAXIMUM STEPSIZE WHICH MEETS STABILITY CRITERION OF THE DISPERSION TERM
 =  20.29    (WHEN MIN. R.F.=1)  AT K=   1, I=   1, J=  31


     1 CALLS TO GCG PACKAGE FOR TRANSPORT TIME STEP   1 IN FLOW TIME STEP 567 STRESS PERIOD   1
     6 TOTAL ITERATIONS

 NO OUTPUT CONTROL FOR STRESS PERIOD    1   TIME STEP 567
 
 SOLVING FOR HEAD 
 FLOW MODEL IS TRANSIENT
 FLOW MODEL CONTAINS CONSTANT-HEAD CELLS


 MAXIMUM STEPSIZE DURING WHICH ANY PARTICLE CANNOT MOVE MORE THAN ONE CELL
 =  5.037    (WHEN MIN. R.F.=1)  AT K=   4, I=   1, J=  74

 MAXIMUM STEPSIZE WHICH MEETS STABILITY CRITERION OF THE ADVECTION TERM
 (FOR PURE FINITE-DIFFERENCE OPTION, MIXELM=0) 
 =  4.130    (WHEN MIN. R.F.=1)  AT K=   2, I=   1, J=  81


 TOTAL NUMBER OF POINT SOURCES/SINKS PRESENT IN THE FLOW MODEL =    62

 MAXIMUM STEPSIZE WHICH MEETS STABILITY CRITERION OF THE SINK & SOURCE TERM
 =  173.0    (WHEN MIN. R.F.=1)  AT K=   2, I=   1, J= 120

 MAXIMUM STEPSIZE WHICH MEETS STABILITY CRITERION OF THE DISPERSION TERM
 =  20.29    (WHEN MIN. R.F.=1)  AT K=   1, I=   1, J=  31
     1 CALLS TO GCG PACKAGE FOR TRANSPORT TIME STEP   2 IN FLOW TIME STEP 567 STRESS PERIOD   1
     6 TOTAL ITERATIONS
 
 SOLVING FOR HEAD 
 FLOW MODEL IS TRANSIENT
 FLOW MODEL CONTAINS CONSTANT-HEAD CELLS


 MAXIMUM STEPSIZE DURING WHICH ANY PARTICLE CANNOT MOVE MORE THAN ONE CELL
 =  4.976    (WHEN MIN. R.F.=1)  AT K=   4, I=   1, J=  74

 MAXIMUM STEPSIZE WHICH MEETS STABILITY CRITERION OF THE ADVECTION TERM
 (FOR PURE FINITE-DIFFERENCE OPTION, MIXELM=0) 
 =  3.775    (WHEN MIN. R.F.=1)  AT K=   2, I=   1, J=  80


 TOTAL NUMBER OF POINT SOURCES/SINKS PRESENT IN THE FLOW MODEL =    62

 MAXIMUM STEPSIZE WHICH MEETS STABILITY CRITERION OF THE SINK & SOURCE TERM
 =  168.5    (WHEN MIN. R.F.=1)  AT K=   2, I=   1, J= 120

 MAXIMUM STEPSIZE WHICH MEETS STABILITY CRITERION OF THE DISPERSION TERM
 =  20.29    (WHEN MIN. R.F.=1)  AT K=   1, I=   1, J=  31
     1 CALLS TO GCG PACKAGE FOR TRANSPORT TIME STEP   3 IN FLOW TIME STEP 567 STRESS PERIOD   1
     6 TOTAL ITERATIONS
 
 SOLVING FOR HEAD 
 FLOW MODEL IS TRANSIENT
 FLOW MODEL CONTAINS CONSTANT-HEAD CELLS


 MAXIMUM STEPSIZE DURING WHICH ANY PARTICLE CANNOT MOVE MORE THAN ONE CELL
 =  4.967    (WHEN MIN. R.F.=1)  AT K=   4, I=   1, J=  74

 MAXIMUM STEPSIZE WHICH MEETS STABILITY CRITERION OF THE ADVECTION TERM
 (FOR PURE FINITE-DIFFERENCE OPTION, MIXELM=0) 
 =  3.595    (WHEN MIN. R.F.=1)  AT K=   2, I=   1, J=  80


 TOTAL NUMBER OF POINT SOURCES/SINKS PRESENT IN THE FLOW MODEL =    62

 MAXIMUM STEPSIZE WHICH MEETS STABILITY CRITERION OF THE SINK & SOURCE TERM
 =  166.7    (WHEN MIN. R.F.=1)  AT K=   2, I=   1, J= 120

 MAXIMUM STEPSIZE WHICH MEETS STABILITY CRITERION OF THE DISPERSION TERM
 =  20.29    (WHEN MIN. R.F.=1)  AT K=   1, I=   1, J=  31
     1 CALLS TO GCG PACKAGE FOR TRANSPORT TIME STEP   4 IN FLOW TIME STEP 567 STRESS PERIOD   1
     5 TOTAL ITERATIONS
  MAXIMUM CONCENTRATION CHANGES FOR EACH ITERATION:
  MAX. CHANGE LAYER,ROW,COL MAX. CHANGE LAYER,ROW,COL MAX. CHANGE LAYER,ROW,COL MAX. CHANGE LAYER,ROW,COL MAX. CHANGE LAYER,ROW,COL
 ------------------------------------------------------------------------------------------------------------------------------------
   0.1188E-01 (  2,  1, 81)  0.2177E-03 (  2,  1, 81)  0.5862E-05 (  3,  1, 79)  0.1683E-06 (  3,  1, 77)  0.3432E-08 (  4,  1, 77)


                                          ================================================
                                                         FROM TIME =   5670.0     TO    5680.0    

 
 SOLVING FOR HEAD 
 FLOW MODEL IS TRANSIENT
 FLOW MODEL CONTAINS CONSTANT-HEAD CELLS


 MAXIMUM STEPSIZE DURING WHICH ANY PARTICLE CANNOT MOVE MORE THAN ONE CELL
 =  4.978    (WHEN MIN. R.F.=1)  AT K=   4, I=   1, J=  74

 MAXIMUM STEPSIZE WHICH MEETS STABILITY CRITERION OF THE ADVECTION TERM
 (FOR PURE FINITE-DIFFERENCE OPTION, MIXELM=0) 
 =  3.590    (WHEN MIN. R.F.=1)  AT K=   2, I=   1, J=  80


 TOTAL NUMBER OF POINT SOURCES/SINKS PRESENT IN THE FLOW MODEL =    62

 MAXIMUM STEPSIZE WHICH MEETS STABILITY CRITERION OF THE SINK & SOURCE TERM
 =  179.2    (WHEN MIN. R.F.=1)  AT K=   2, I=   1, J= 120

 MAXIMUM STEPSIZE WHICH MEETS STABILITY CRITERION OF THE DISPERSION TERM
 =  20.29    (WHEN MIN. R.F.=1)  AT K=   1, I=   1, J=  31


     1 CALLS TO GCG PACKAGE FOR TRANSPORT TIME STEP   1 IN FLOW TIME STEP 568 STRESS PERIOD   1
     6 TOTAL ITERATIONS

 NO OUTPUT CONTROL FOR STRESS PERIOD    1   TIME STEP 568
 
 SOLVING FOR HEAD 
 FLOW MODEL IS TRANSIENT
 FLOW MODEL CONTAINS CONSTANT-HEAD CELLS


 MAXIMUM STEPSIZE DURING WHICH ANY PARTICLE CANNOT MOVE MORE THAN ONE CELL
 =  5.032    (WHEN MIN. R.F.=1)  AT K=   4, I=   1, J=  74

 MAXIMUM STEPSIZE WHICH MEETS STABILITY CRITERION OF THE ADVECTION TERM
 (FOR PURE FINITE-DIFFERENCE OPTION, MIXELM=0) 
 =  3.665    (WHEN MIN. R.F.=1)  AT K=   2, I=   1, J=  80


 TOTAL NUMBER OF POINT SOURCES/SINKS PRESENT IN THE FLOW MODEL =    62

 MAXIMUM STEPSIZE WHICH MEETS STABILITY CRITERION OF THE SINK & SOURCE TERM
 =  172.5    (WHEN MIN. R.F.=1)  AT K=   2, I=   1, J= 120

 MAXIMUM STEPSIZE WHICH MEETS STABILITY CRITERION OF THE DISPERSION TERM
 =  20.29    (WHEN MIN. R.F.=1)  AT K=   1, I=   1, J=  31
     1 CALLS TO GCG PACKAGE FOR TRANSPORT TIME STEP   2 IN FLOW TIME STEP 568 STRESS PERIOD   1
     6 TOTAL ITERATIONS
 
 SOLVING FOR HEAD 
 FLOW MODEL IS TRANSIENT
 FLOW MODEL CONTAINS CONSTANT-HEAD CELLS


 MAXIMUM STEPSIZE DURING WHICH ANY PARTICLE CANNOT MOVE MORE THAN ONE CELL
 =  5.090    (WHEN MIN. R.F.=1)  AT K=   5, I=   1, J=  74

 MAXIMUM STEPSIZE WHICH MEETS STABILITY CRITERION OF THE ADVECTION TERM
 (FOR PURE FINITE-DIFFERENCE OPTION, MIXELM=0) 
 =  3.965    (WHEN MIN. R.F.=1)  AT K=   2, I=   1, J=  80


 TOTAL NUMBER OF POINT SOURCES/SINKS PRESENT IN THE FLOW MODEL =    62

 MAXIMUM STEPSIZE WHICH MEETS STABILITY CRITERION OF THE SINK & SOURCE TERM
 =  172.0    (WHEN MIN. R.F.=1)  AT K=   2, I=   1, J= 120

 MAXIMUM STEPSIZE WHICH MEETS STABILITY CRITERION OF THE DISPERSION TERM
 =  20.29    (WHEN MIN. R.F.=1)  AT K=   1, I=   1, J=  31
     1 CALLS TO GCG PACKAGE FOR TRANSPORT TIME STEP   3 IN FLOW TIME STEP 568 STRESS PERIOD   1
     6 TOTAL ITERATIONS
 
 SOLVING FOR HEAD 
 FLOW MODEL IS TRANSIENT
 FLOW MODEL CONTAINS CONSTANT-HEAD CELLS


 MAXIMUM STEPSIZE DURING WHICH ANY PARTICLE CANNOT MOVE MORE THAN ONE CELL
 =  5.155    (WHEN MIN. R.F.=1)  AT K=   5, I=   1, J=  74

 MAXIMUM STEPSIZE WHICH MEETS STABILITY CRITERION OF THE ADVECTION TERM
 (FOR PURE FINITE-DIFFERENCE OPTION, MIXELM=0) 
 =  3.735    (WHEN MIN. R.F.=1)  AT K=   2, I=   1, J=  79


 TOTAL NUMBER OF POINT SOURCES/SINKS PRESENT IN THE FLOW MODEL =    62

 MAXIMUM STEPSIZE WHICH MEETS STABILITY CRITERION OF THE SINK & SOURCE TERM
 =  169.9    (WHEN MIN. R.F.=1)  AT K=   2, I=   1, J= 120

 MAXIMUM STEPSIZE WHICH MEETS STABILITY CRITERION OF THE DISPERSION TERM
 =  20.29    (WHEN MIN. R.F.=1)  AT K=   1, I=   1, J=  31
     1 CALLS TO GCG PACKAGE FOR TRANSPORT TIME STEP   4 IN FLOW TIME STEP 568 STRESS PERIOD   1
     5 TOTAL ITERATIONS
  MAXIMUM CONCENTRATION CHANGES FOR EACH ITERATION:
  MAX. CHANGE LAYER,ROW,COL MAX. CHANGE LAYER,ROW,COL MAX. CHANGE LAYER,ROW,COL MAX. CHANGE LAYER,ROW,COL MAX. CHANGE LAYER,ROW,COL
 ------------------------------------------------------------------------------------------------------------------------------------
   0.2107E-01 (  2,  1, 81)  0.6673E-03 (  2,  1, 79)  0.2451E-04 (  3,  1, 79)  0.1392E-05 (  3,  1, 76)  0.4443E-07 (  4,  1, 76)


                                          ================================================
                                                         FROM TIME =   5680.0     TO    5690.0    

 
 SOLVING FOR HEAD 
 FLOW MODEL IS TRANSIENT
 FLOW MODEL CONTAINS CONSTANT-HEAD CELLS


 MAXIMUM STEPSIZE DURING WHICH ANY PARTICLE CANNOT MOVE MORE THAN ONE CELL
 =  5.222    (WHEN MIN. R.F.=1)  AT K=   5, I=   1, J=  74

 MAXIMUM STEPSIZE WHICH MEETS STABILITY CRITERION OF THE ADVECTION TERM
 (FOR PURE FINITE-DIFFERENCE OPTION, MIXELM=0) 
 =  3.628    (WHEN MIN. R.F.=1)  AT K=   2, I=   1, J=  79


 TOTAL NUMBER OF POINT SOURCES/SINKS PRESENT IN THE FLOW MODEL =    62

 MAXIMUM STEPSIZE WHICH MEETS STABILITY CRITERION OF THE SINK & SOURCE TERM
 =  170.7    (WHEN MIN. R.F.=1)  AT K=   2, I=   1, J= 120

 MAXIMUM STEPSIZE WHICH MEETS STABILITY CRITERION OF THE DISPERSION TERM
 =  20.29    (WHEN MIN. R.F.=1)  AT K=   1, I=   1, J=  31


     1 CALLS TO GCG PACKAGE FOR TRANSPORT TIME STEP   1 IN FLOW TIME STEP 569 STRESS PERIOD   1
     6 TOTAL ITERATIONS

 NO OUTPUT CONTROL FOR STRESS PERIOD    1   TIME STEP 569
 
 SOLVING FOR HEAD 
 FLOW MODEL IS TRANSIENT
 FLOW MODEL CONTAINS CONSTANT-HEAD CELLS


 MAXIMUM STEPSIZE DURING WHICH ANY PARTICLE CANNOT MOVE MORE THAN ONE CELL
 =  5.348    (WHEN MIN. R.F.=1)  AT K=   5, I=   1, J=  74

 MAXIMUM STEPSIZE WHICH MEETS STABILITY CRITERION OF THE ADVECTION TERM
 (FOR PURE FINITE-DIFFERENCE OPTION, MIXELM=0) 
 =  3.571    (WHEN MIN. R.F.=1)  AT K=   2, I=   1, J=  79


 TOTAL NUMBER OF POINT SOURCES/SINKS PRESENT IN THE FLOW MODEL =    62

 MAXIMUM STEPSIZE WHICH MEETS STABILITY CRITERION OF THE SINK & SOURCE TERM
 =  168.0    (WHEN MIN. R.F.=1)  AT K=   2, I=   1, J= 120

 MAXIMUM STEPSIZE WHICH MEETS STABILITY CRITERION OF THE DISPERSION TERM
 =  20.29    (WHEN MIN. R.F.=1)  AT K=   1, I=   1, J=  31
     1 CALLS TO GCG PACKAGE FOR TRANSPORT TIME STEP   2 IN FLOW TIME STEP 569 STRESS PERIOD   1
     6 TOTAL ITERATIONS
 
 SOLVING FOR HEAD 
 FLOW MODEL IS TRANSIENT
 FLOW MODEL CONTAINS CONSTANT-HEAD CELLS


 MAXIMUM STEPSIZE DURING WHICH ANY PARTICLE CANNOT MOVE MORE THAN ONE CELL
 =  5.461    (WHEN MIN. R.F.=1)  AT K=   6, I=   1, J=  74

 MAXIMUM STEPSIZE WHICH MEETS STABILITY CRITERION OF THE ADVECTION TERM
 (FOR PURE FINITE-DIFFERENCE OPTION, MIXELM=0) 
 =  3.647    (WHEN MIN. R.F.=1)  AT K=   2, I=   1, J=  79


 TOTAL NUMBER OF POINT SOURCES/SINKS PRESENT IN THE FLOW MODEL =    62

 MAXIMUM STEPSIZE WHICH MEETS STABILITY CRITERION OF THE SINK & SOURCE TERM
 =  170.1    (WHEN MIN. R.F.=1)  AT K=   2, I=   1, J= 120

 MAXIMUM STEPSIZE WHICH MEETS STABILITY CRITERION OF THE DISPERSION TERM
 =  20.29    (WHEN MIN. R.F.=1)  AT K=   1, I=   1, J=  31
     1 CALLS TO GCG PACKAGE FOR TRANSPORT TIME STEP   3 IN FLOW TIME STEP 569 STRESS PERIOD   1
     6 TOTAL ITERATIONS
 
 SOLVING FOR HEAD 
 FLOW MODEL IS TRANSIENT
 FLOW MODEL CONTAINS CONSTANT-HEAD CELLS


 MAXIMUM STEPSIZE DURING WHICH ANY PARTICLE CANNOT MOVE MORE THAN ONE CELL
 =  5.581    (WHEN MIN. R.F.=1)  AT K=   6, I=   1, J=  74

 MAXIMUM STEPSIZE WHICH MEETS STABILITY CRITERION OF THE ADVECTION TERM
 (FOR PURE FINITE-DIFFERENCE OPTION, MIXELM=0) 
 =  3.902    (WHEN MIN. R.F.=1)  AT K=   2, I=   1, J=  79


 TOTAL NUMBER OF POINT SOURCES/SINKS PRESENT IN THE FLOW MODEL =    62

 MAXIMUM STEPSIZE WHICH MEETS STABILITY CRITERION OF THE SINK & SOURCE TERM
 =  171.3    (WHEN MIN. R.F.=1)  AT K=   2, I=   1, J= 120

 MAXIMUM STEPSIZE WHICH MEETS STABILITY CRITERION OF THE DISPERSION TERM
 =  20.29    (WHEN MIN. R.F.=1)  AT K=   1, I=   1, J=  31
     1 CALLS TO GCG PACKAGE FOR TRANSPORT TIME STEP   4 IN FLOW TIME STEP 569 STRESS PERIOD   1
     5 TOTAL ITERATIONS
  MAXIMUM CONCENTRATION CHANGES FOR EACH ITERATION:
  MAX. CHANGE LAYER,ROW,COL MAX. CHANGE LAYER,ROW,COL MAX. CHANGE LAYER,ROW,COL MAX. CHANGE LAYER,ROW,COL MAX. CHANGE LAYER,ROW,COL
 ------------------------------------------------------------------------------------------------------------------------------------
   0.2185E-01 (  2,  1, 80)  0.6671E-03 (  2,  1, 78)  0.2762E-04 (  3,  1, 78)  0.1150E-05 (  3,  1, 76)  0.3241E-07 (  4,  1, 79)


                                          ================================================
                                                         FROM TIME =   5690.0     TO    5700.0    

 
 SOLVING FOR HEAD 
 FLOW MODEL IS TRANSIENT
 FLOW MODEL CONTAINS CONSTANT-HEAD CELLS


 MAXIMUM STEPSIZE DURING WHICH ANY PARTICLE CANNOT MOVE MORE THAN ONE CELL
 =  5.682    (WHEN MIN. R.F.=1)  AT K=   6, I=   1, J=  74

 MAXIMUM STEPSIZE WHICH MEETS STABILITY CRITERION OF THE ADVECTION TERM
 (FOR PURE FINITE-DIFFERENCE OPTION, MIXELM=0) 
 =  4.034    (WHEN MIN. R.F.=1)  AT K=   2, I=   1, J=  78


 TOTAL NUMBER OF POINT SOURCES/SINKS PRESENT IN THE FLOW MODEL =    62

 MAXIMUM STEPSIZE WHICH MEETS STABILITY CRITERION OF THE SINK & SOURCE TERM
 =  174.8    (WHEN MIN. R.F.=1)  AT K=   2, I=   1, J= 120

 MAXIMUM STEPSIZE WHICH MEETS STABILITY CRITERION OF THE DISPERSION TERM
 =  20.29    (WHEN MIN. R.F.=1)  AT K=   1, I=   1, J=  31


     1 CALLS TO GCG PACKAGE FOR TRANSPORT TIME STEP   1 IN FLOW TIME STEP 570 STRESS PERIOD   1
     6 TOTAL ITERATIONS

 NO OUTPUT CONTROL FOR STRESS PERIOD    1   TIME STEP 570
 
 SOLVING FOR HEAD 
 FLOW MODEL IS TRANSIENT
 FLOW MODEL CONTAINS CONSTANT-HEAD CELLS


 MAXIMUM STEPSIZE DURING WHICH ANY PARTICLE CANNOT MOVE MORE THAN ONE CELL
 =  5.663    (WHEN MIN. R.F.=1)  AT K=   4, I=   1, J=  47

 MAXIMUM STEPSIZE WHICH MEETS STABILITY CRITERION OF THE ADVECTION TERM
 (FOR PURE FINITE-DIFFERENCE OPTION, MIXELM=0) 
 =  3.759    (WHEN MIN. R.F.=1)  AT K=   2, I=   1, J=  78


 TOTAL NUMBER OF POINT SOURCES/SINKS PRESENT IN THE FLOW MODEL =    62

 MAXIMUM STEPSIZE WHICH MEETS STABILITY CRITERION OF THE SINK & SOURCE TERM
 =  170.2    (WHEN MIN. R.F.=1)  AT K=   2, I=   1, J= 120

 MAXIMUM STEPSIZE WHICH MEETS STABILITY CRITERION OF THE DISPERSION TERM
 =  20.29    (WHEN MIN. R.F.=1)  AT K=   1, I=   1, J=  31
     1 CALLS TO GCG PACKAGE FOR TRANSPORT TIME STEP   2 IN FLOW TIME STEP 570 STRESS PERIOD   1
     6 TOTAL ITERATIONS
 
 SOLVING FOR HEAD 
 FLOW MODEL IS TRANSIENT
 FLOW MODEL CONTAINS CONSTANT-HEAD CELLS


 MAXIMUM STEPSIZE DURING WHICH ANY PARTICLE CANNOT MOVE MORE THAN ONE CELL
 =  5.398    (WHEN MIN. R.F.=1)  AT K=   4, I=   1, J=  47

 MAXIMUM STEPSIZE WHICH MEETS STABILITY CRITERION OF THE ADVECTION TERM
 (FOR PURE FINITE-DIFFERENCE OPTION, MIXELM=0) 
 =  3.651    (WHEN MIN. R.F.=1)  AT K=   2, I=   1, J=  78


 TOTAL NUMBER OF POINT SOURCES/SINKS PRESENT IN THE FLOW MODEL =    62

 MAXIMUM STEPSIZE WHICH MEETS STABILITY CRITERION OF THE SINK & SOURCE TERM
 =  170.1    (WHEN MIN. R.F.=1)  AT K=   2, I=   1, J= 120

 MAXIMUM STEPSIZE WHICH MEETS STABILITY CRITERION OF THE DISPERSION TERM
 =  20.29    (WHEN MIN. R.F.=1)  AT K=   1, I=   1, J=  31
     1 CALLS TO GCG PACKAGE FOR TRANSPORT TIME STEP   3 IN FLOW TIME STEP 570 STRESS PERIOD   1
     6 TOTAL ITERATIONS
 
 SOLVING FOR HEAD 
 FLOW MODEL IS TRANSIENT
 FLOW MODEL CONTAINS CONSTANT-HEAD CELLS


 MAXIMUM STEPSIZE DURING WHICH ANY PARTICLE CANNOT MOVE MORE THAN ONE CELL
 =  5.249    (WHEN MIN. R.F.=1)  AT K=   4, I=   1, J=  47

 MAXIMUM STEPSIZE WHICH MEETS STABILITY CRITERION OF THE ADVECTION TERM
 (FOR PURE FINITE-DIFFERENCE OPTION, MIXELM=0) 
 =  3.680    (WHEN MIN. R.F.=1)  AT K=   2, I=   1, J=  78


 TOTAL NUMBER OF POINT SOURCES/SINKS PRESENT IN THE FLOW MODEL =    62

 MAXIMUM STEPSIZE WHICH MEETS STABILITY CRITERION OF THE SINK & SOURCE TERM
 =  172.4    (WHEN MIN. R.F.=1)  AT K=   2, I=   1, J= 120

 MAXIMUM STEPSIZE WHICH MEETS STABILITY CRITERION OF THE DISPERSION TERM
 =  20.29    (WHEN MIN. R.F.=1)  AT K=   1, I=   1, J=  31
     1 CALLS TO GCG PACKAGE FOR TRANSPORT TIME STEP   4 IN FLOW TIME STEP 570 STRESS PERIOD   1
     5 TOTAL ITERATIONS
  MAXIMUM CONCENTRATION CHANGES FOR EACH ITERATION:
  MAX. CHANGE LAYER,ROW,COL MAX. CHANGE LAYER,ROW,COL MAX. CHANGE LAYER,ROW,COL MAX. CHANGE LAYER,ROW,COL MAX. CHANGE LAYER,ROW,COL
 ------------------------------------------------------------------------------------------------------------------------------------
   0.1513E-01 (  2,  1, 79)  0.3006E-03 (  2,  1, 79)  0.7323E-05 (  2,  1, 80)  0.2166E-06 (  3,  1, 80)  0.5412E-08 (  4,  1, 79)


                                          ================================================
                                                         FROM TIME =   5700.0     TO    5710.0    

 
 SOLVING FOR HEAD 
 FLOW MODEL IS TRANSIENT
 FLOW MODEL CONTAINS CONSTANT-HEAD CELLS


 MAXIMUM STEPSIZE DURING WHICH ANY PARTICLE CANNOT MOVE MORE THAN ONE CELL
 =  5.213    (WHEN MIN. R.F.=1)  AT K=   4, I=   1, J=  47

 MAXIMUM STEPSIZE WHICH MEETS STABILITY CRITERION OF THE ADVECTION TERM
 (FOR PURE FINITE-DIFFERENCE OPTION, MIXELM=0) 
 =  3.736    (WHEN MIN. R.F.=1)  AT K=   2, I=   1, J=  78


 TOTAL NUMBER OF POINT SOURCES/SINKS PRESENT IN THE FLOW MODEL =    62

 MAXIMUM STEPSIZE WHICH MEETS STABILITY CRITERION OF THE SINK & SOURCE TERM
 =  178.0    (WHEN MIN. R.F.=1)  AT K=   2, I=   1, J= 120

 MAXIMUM STEPSIZE WHICH MEETS STABILITY CRITERION OF THE DISPERSION TERM
 =  20.29    (WHEN MIN. R.F.=1)  AT K=   1, I=   1, J=  31


     1 CALLS TO GCG PACKAGE FOR TRANSPORT TIME STEP   1 IN FLOW TIME STEP 571 STRESS PERIOD   1
     6 TOTAL ITERATIONS

 NO OUTPUT CONTROL FOR STRESS PERIOD    1   TIME STEP 571
 
 SOLVING FOR HEAD 
 FLOW MODEL IS TRANSIENT
 FLOW MODEL CONTAINS CONSTANT-HEAD CELLS


 MAXIMUM STEPSIZE DURING WHICH ANY PARTICLE CANNOT MOVE MORE THAN ONE CELL
 =  5.185    (WHEN MIN. R.F.=1)  AT K=   4, I=   1, J=  47

 MAXIMUM STEPSIZE WHICH MEETS STABILITY CRITERION OF THE ADVECTION TERM
 (FOR PURE FINITE-DIFFERENCE OPTION, MIXELM=0) 
 =  3.960    (WHEN MIN. R.F.=1)  AT K=   2, I=   1, J=  41


 TOTAL NUMBER OF POINT SOURCES/SINKS PRESENT IN THE FLOW MODEL =    62

 MAXIMUM STEPSIZE WHICH MEETS STABILITY CRITERION OF THE SINK & SOURCE TERM
 =  172.4    (WHEN MIN. R.F.=1)  AT K=   2, I=   1, J= 120

 MAXIMUM STEPSIZE WHICH MEETS STABILITY CRITERION OF THE DISPERSION TERM
 =  20.29    (WHEN MIN. R.F.=1)  AT K=   1, I=   1, J=  31
     1 CALLS TO GCG PACKAGE FOR TRANSPORT TIME STEP   2 IN FLOW TIME STEP 571 STRESS PERIOD   1
     6 TOTAL ITERATIONS
 
 SOLVING FOR HEAD 
 FLOW MODEL IS TRANSIENT
 FLOW MODEL CONTAINS CONSTANT-HEAD CELLS


 MAXIMUM STEPSIZE DURING WHICH ANY PARTICLE CANNOT MOVE MORE THAN ONE CELL
 =  5.230    (WHEN MIN. R.F.=1)  AT K=   4, I=   1, J=  47

 MAXIMUM STEPSIZE WHICH MEETS STABILITY CRITERION OF THE ADVECTION TERM
 (FOR PURE FINITE-DIFFERENCE OPTION, MIXELM=0) 
 =  3.799    (WHEN MIN. R.F.=1)  AT K=   2, I=   1, J=  41


 TOTAL NUMBER OF POINT SOURCES/SINKS PRESENT IN THE FLOW MODEL =    62

 MAXIMUM STEPSIZE WHICH MEETS STABILITY CRITERION OF THE SINK & SOURCE TERM
 =  173.5    (WHEN MIN. R.F.=1)  AT K=   2, I=   1, J= 120

 MAXIMUM STEPSIZE WHICH MEETS STABILITY CRITERION OF THE DISPERSION TERM
 =  20.29    (WHEN MIN. R.F.=1)  AT K=   1, I=   1, J=  31
     1 CALLS TO GCG PACKAGE FOR TRANSPORT TIME STEP   3 IN FLOW TIME STEP 571 STRESS PERIOD   1
     6 TOTAL ITERATIONS
 
 SOLVING FOR HEAD 
 FLOW MODEL IS TRANSIENT
 FLOW MODEL CONTAINS CONSTANT-HEAD CELLS


 MAXIMUM STEPSIZE DURING WHICH ANY PARTICLE CANNOT MOVE MORE THAN ONE CELL
 =  5.299    (WHEN MIN. R.F.=1)  AT K=   5, I=   1, J=  47

 MAXIMUM STEPSIZE WHICH MEETS STABILITY CRITERION OF THE ADVECTION TERM
 (FOR PURE FINITE-DIFFERENCE OPTION, MIXELM=0) 
 =  3.782    (WHEN MIN. R.F.=1)  AT K=   2, I=   1, J=  41


 TOTAL NUMBER OF POINT SOURCES/SINKS PRESENT IN THE FLOW MODEL =    62

 MAXIMUM STEPSIZE WHICH MEETS STABILITY CRITERION OF THE SINK & SOURCE TERM
 =  175.5    (WHEN MIN. R.F.=1)  AT K=   2, I=   1, J= 120

 MAXIMUM STEPSIZE WHICH MEETS STABILITY CRITERION OF THE DISPERSION TERM
 =  20.29    (WHEN MIN. R.F.=1)  AT K=   1, I=   1, J=  31
     1 CALLS TO GCG PACKAGE FOR TRANSPORT TIME STEP   4 IN FLOW TIME STEP 571 STRESS PERIOD   1
     5 TOTAL ITERATIONS
  MAXIMUM CONCENTRATION CHANGES FOR EACH ITERATION:
  MAX. CHANGE LAYER,ROW,COL MAX. CHANGE LAYER,ROW,COL MAX. CHANGE LAYER,ROW,COL MAX. CHANGE LAYER,ROW,COL MAX. CHANGE LAYER,ROW,COL
 ------------------------------------------------------------------------------------------------------------------------------------
   0.1552E-01 (  2,  1, 90)  0.4564E-03 (  2,  1, 77)  0.1241E-04 (  3,  1, 42)  0.3552E-06 (  4,  1, 42)  0.1034E-07 (  3,  1, 88)


                                          ================================================
                                                         FROM TIME =   5710.0     TO    5720.0    

 
 SOLVING FOR HEAD 
 FLOW MODEL IS TRANSIENT
 FLOW MODEL CONTAINS CONSTANT-HEAD CELLS


 MAXIMUM STEPSIZE DURING WHICH ANY PARTICLE CANNOT MOVE MORE THAN ONE CELL
 =  5.333    (WHEN MIN. R.F.=1)  AT K=   5, I=   1, J=  47

 MAXIMUM STEPSIZE WHICH MEETS STABILITY CRITERION OF THE ADVECTION TERM
 (FOR PURE FINITE-DIFFERENCE OPTION, MIXELM=0) 
 =  3.833    (WHEN MIN. R.F.=1)  AT K=   2, I=   1, J=  41


 TOTAL NUMBER OF POINT SOURCES/SINKS PRESENT IN THE FLOW MODEL =    62

 MAXIMUM STEPSIZE WHICH MEETS STABILITY CRITERION OF THE SINK & SOURCE TERM
 =  183.6    (WHEN MIN. R.F.=1)  AT K=   2, I=   1, J= 120

 MAXIMUM STEPSIZE WHICH MEETS STABILITY CRITERION OF THE DISPERSION TERM
 =  20.29    (WHEN MIN. R.F.=1)  AT K=   1, I=   1, J=  31


     1 CALLS TO GCG PACKAGE FOR TRANSPORT TIME STEP   1 IN FLOW TIME STEP 572 STRESS PERIOD   1
     6 TOTAL ITERATIONS

 NO OUTPUT CONTROL FOR STRESS PERIOD    1   TIME STEP 572
 
 SOLVING FOR HEAD 
 FLOW MODEL IS TRANSIENT
 FLOW MODEL CONTAINS CONSTANT-HEAD CELLS


 MAXIMUM STEPSIZE DURING WHICH ANY PARTICLE CANNOT MOVE MORE THAN ONE CELL
 =  5.427    (WHEN MIN. R.F.=1)  AT K=   5, I=   1, J=  47

 MAXIMUM STEPSIZE WHICH MEETS STABILITY CRITERION OF THE ADVECTION TERM
 (FOR PURE FINITE-DIFFERENCE OPTION, MIXELM=0) 
 =  3.841    (WHEN MIN. R.F.=1)  AT K=   2, I=   1, J=  77


 TOTAL NUMBER OF POINT SOURCES/SINKS PRESENT IN THE FLOW MODEL =    62

 MAXIMUM STEPSIZE WHICH MEETS STABILITY CRITERION OF THE SINK & SOURCE TERM
 =  179.9    (WHEN MIN. R.F.=1)  AT K=   2, I=   1, J= 120

 MAXIMUM STEPSIZE WHICH MEETS STABILITY CRITERION OF THE DISPERSION TERM
 =  20.29    (WHEN MIN. R.F.=1)  AT K=   1, I=   1, J=  31
     1 CALLS TO GCG PACKAGE FOR TRANSPORT TIME STEP   2 IN FLOW TIME STEP 572 STRESS PERIOD   1
     6 TOTAL ITERATIONS
 
 SOLVING FOR HEAD 
 FLOW MODEL IS TRANSIENT
 FLOW MODEL CONTAINS CONSTANT-HEAD CELLS


 MAXIMUM STEPSIZE DURING WHICH ANY PARTICLE CANNOT MOVE MORE THAN ONE CELL
 =  5.563    (WHEN MIN. R.F.=1)  AT K=   5, I=   1, J=  47

 MAXIMUM STEPSIZE WHICH MEETS STABILITY CRITERION OF THE ADVECTION TERM
 (FOR PURE FINITE-DIFFERENCE OPTION, MIXELM=0) 
 =  3.852    (WHEN MIN. R.F.=1)  AT K=   2, I=   1, J=  42


 TOTAL NUMBER OF POINT SOURCES/SINKS PRESENT IN THE FLOW MODEL =    62

 MAXIMUM STEPSIZE WHICH MEETS STABILITY CRITERION OF THE SINK & SOURCE TERM
 =  180.2    (WHEN MIN. R.F.=1)  AT K=   2, I=   1, J= 120

 MAXIMUM STEPSIZE WHICH MEETS STABILITY CRITERION OF THE DISPERSION TERM
 =  20.29    (WHEN MIN. R.F.=1)  AT K=   1, I=   1, J=  31
     1 CALLS TO GCG PACKAGE FOR TRANSPORT TIME STEP   3 IN FLOW TIME STEP 572 STRESS PERIOD   1
     4 TOTAL ITERATIONS



 >>>>>>>>>>>>>>>>>>>>>>>>>>>>>>>>>>>>>>>>>>>>>>>>>>>>>>>FOR COMPONENT NO. 01<<<<<<<<<<<<<<<<<<<<<<<<<<<<<<<<<<<<<<<<<<<<<<<<<<<<<<<


                                            -------------------------------------------
                                                      TRANSPORT STEP NO.    3
                                            -------------------------------------------

 TOTAL ELAPSED TIME SINCE BEGINNING OF SIMULATION =   5716.600    D   
 .....................................................................

                     CUMULATIVE MASS BUDGETS AT END OF TRANSPORT STEP    3, TIME STEP  572, STRESS PERIOD    1
                     ------------------------------------------------------------------------------------------

                                                             IN                           OUT
                                                      ----------------             ----------------
                               CONSTANT CONCENTRATION:    3338836.                   -2413262.    
                                        CONSTANT HEAD:    0.000000                   -829.3687    
                               MASS STOR (FLOW MODEL):    383.5688                   -585.2488    
                                MASS STORAGE (SOLUTE):    5863032.                   -6787575.    
                            ---------------------------------------------------------------------------
                                              [TOTAL]:    9202251.     KG            -9202251.     KG  

                                                          NET (IN - OUT):  -0.1713072E-01
                                                   DISCREPANCY (PERCENT):  -0.1861579E-06
 
 SOLVING FOR HEAD 
 FLOW MODEL IS TRANSIENT
 FLOW MODEL CONTAINS CONSTANT-HEAD CELLS


 MAXIMUM STEPSIZE DURING WHICH ANY PARTICLE CANNOT MOVE MORE THAN ONE CELL
 =  5.617    (WHEN MIN. R.F.=1)  AT K=   5, I=   1, J=  47

 MAXIMUM STEPSIZE WHICH MEETS STABILITY CRITERION OF THE ADVECTION TERM
 (FOR PURE FINITE-DIFFERENCE OPTION, MIXELM=0) 
 =  3.798    (WHEN MIN. R.F.=1)  AT K=   2, I=   1, J=  42


 TOTAL NUMBER OF POINT SOURCES/SINKS PRESENT IN THE FLOW MODEL =    62

 MAXIMUM STEPSIZE WHICH MEETS STABILITY CRITERION OF THE SINK & SOURCE TERM
 =  184.0    (WHEN MIN. R.F.=1)  AT K=   2, I=   1, J= 120

 MAXIMUM STEPSIZE WHICH MEETS STABILITY CRITERION OF THE DISPERSION TERM
 =  20.29    (WHEN MIN. R.F.=1)  AT K=   1, I=   1, J=  31
     1 CALLS TO GCG PACKAGE FOR TRANSPORT TIME STEP   4 IN FLOW TIME STEP 572 STRESS PERIOD   1
     6 TOTAL ITERATIONS
 
 SOLVING FOR HEAD 
 FLOW MODEL IS TRANSIENT
 FLOW MODEL CONTAINS CONSTANT-HEAD CELLS


 MAXIMUM STEPSIZE DURING WHICH ANY PARTICLE CANNOT MOVE MORE THAN ONE CELL
 =  5.718    (WHEN MIN. R.F.=1)  AT K=   6, I=   1, J=  47

 MAXIMUM STEPSIZE WHICH MEETS STABILITY CRITERION OF THE ADVECTION TERM
 (FOR PURE FINITE-DIFFERENCE OPTION, MIXELM=0) 
 =  3.716    (WHEN MIN. R.F.=1)  AT K=   2, I=   1, J=  42


 TOTAL NUMBER OF POINT SOURCES/SINKS PRESENT IN THE FLOW MODEL =    62

 MAXIMUM STEPSIZE WHICH MEETS STABILITY CRITERION OF THE SINK & SOURCE TERM
 =  181.1    (WHEN MIN. R.F.=1)  AT K=   2, I=   1, J= 120

 MAXIMUM STEPSIZE WHICH MEETS STABILITY CRITERION OF THE DISPERSION TERM
 =  20.29    (WHEN MIN. R.F.=1)  AT K=   1, I=   1, J=  31
     1 CALLS TO GCG PACKAGE FOR TRANSPORT TIME STEP   5 IN FLOW TIME STEP 572 STRESS PERIOD   1
     4 TOTAL ITERATIONS
  MAXIMUM CONCENTRATION CHANGES FOR EACH ITERATION:
  MAX. CHANGE LAYER,ROW,COL MAX. CHANGE LAYER,ROW,COL MAX. CHANGE LAYER,ROW,COL MAX. CHANGE LAYER,ROW,COL MAX. CHANGE LAYER,ROW,COL
 ------------------------------------------------------------------------------------------------------------------------------------
   0.6372E-02 (  2,  1, 78)  0.4559E-04 (  2,  1, 75)  0.5504E-06 (  2,  1, 79)  0.1077E-07 (  3,  1, 45)


                                          ================================================
                                                         FROM TIME =   5720.0     TO    5730.0    

 
 SOLVING FOR HEAD 
 FLOW MODEL IS TRANSIENT
 FLOW MODEL CONTAINS CONSTANT-HEAD CELLS


 MAXIMUM STEPSIZE DURING WHICH ANY PARTICLE CANNOT MOVE MORE THAN ONE CELL
 =  5.741    (WHEN MIN. R.F.=1)  AT K=   6, I=   1, J=  47

 MAXIMUM STEPSIZE WHICH MEETS STABILITY CRITERION OF THE ADVECTION TERM
 (FOR PURE FINITE-DIFFERENCE OPTION, MIXELM=0) 
 =  3.715    (WHEN MIN. R.F.=1)  AT K=   2, I=   1, J=  42


 TOTAL NUMBER OF POINT SOURCES/SINKS PRESENT IN THE FLOW MODEL =    62

 MAXIMUM STEPSIZE WHICH MEETS STABILITY CRITERION OF THE SINK & SOURCE TERM
 =  185.0    (WHEN MIN. R.F.=1)  AT K=   2, I=   1, J= 120

 MAXIMUM STEPSIZE WHICH MEETS STABILITY CRITERION OF THE DISPERSION TERM
 =  20.29    (WHEN MIN. R.F.=1)  AT K=   1, I=   1, J=  31


     1 CALLS TO GCG PACKAGE FOR TRANSPORT TIME STEP   1 IN FLOW TIME STEP 573 STRESS PERIOD   1
     6 TOTAL ITERATIONS

 NO OUTPUT CONTROL FOR STRESS PERIOD    1   TIME STEP 573
 
 SOLVING FOR HEAD 
 FLOW MODEL IS TRANSIENT
 FLOW MODEL CONTAINS CONSTANT-HEAD CELLS


 MAXIMUM STEPSIZE DURING WHICH ANY PARTICLE CANNOT MOVE MORE THAN ONE CELL
 =  5.879    (WHEN MIN. R.F.=1)  AT K=   6, I=   1, J=  47

 MAXIMUM STEPSIZE WHICH MEETS STABILITY CRITERION OF THE ADVECTION TERM
 (FOR PURE FINITE-DIFFERENCE OPTION, MIXELM=0) 
 =  3.775    (WHEN MIN. R.F.=1)  AT K=   2, I=   1, J=  42


 TOTAL NUMBER OF POINT SOURCES/SINKS PRESENT IN THE FLOW MODEL =    62

 MAXIMUM STEPSIZE WHICH MEETS STABILITY CRITERION OF THE SINK & SOURCE TERM
 =  178.3    (WHEN MIN. R.F.=1)  AT K=   2, I=   1, J= 120

 MAXIMUM STEPSIZE WHICH MEETS STABILITY CRITERION OF THE DISPERSION TERM
 =  20.29    (WHEN MIN. R.F.=1)  AT K=   1, I=   1, J=  31
     1 CALLS TO GCG PACKAGE FOR TRANSPORT TIME STEP   2 IN FLOW TIME STEP 573 STRESS PERIOD   1
     6 TOTAL ITERATIONS
 
 SOLVING FOR HEAD 
 FLOW MODEL IS TRANSIENT
 FLOW MODEL CONTAINS CONSTANT-HEAD CELLS


 MAXIMUM STEPSIZE DURING WHICH ANY PARTICLE CANNOT MOVE MORE THAN ONE CELL
 =  5.997    (WHEN MIN. R.F.=1)  AT K=   7, I=   1, J=  47

 MAXIMUM STEPSIZE WHICH MEETS STABILITY CRITERION OF THE ADVECTION TERM
 (FOR PURE FINITE-DIFFERENCE OPTION, MIXELM=0) 
 =  3.985    (WHEN MIN. R.F.=1)  AT K=   2, I=   1, J=  42


 TOTAL NUMBER OF POINT SOURCES/SINKS PRESENT IN THE FLOW MODEL =    62

 MAXIMUM STEPSIZE WHICH MEETS STABILITY CRITERION OF THE SINK & SOURCE TERM
 =  179.2    (WHEN MIN. R.F.=1)  AT K=   2, I=   1, J= 120

 MAXIMUM STEPSIZE WHICH MEETS STABILITY CRITERION OF THE DISPERSION TERM
 =  20.29    (WHEN MIN. R.F.=1)  AT K=   1, I=   1, J=  31
     1 CALLS TO GCG PACKAGE FOR TRANSPORT TIME STEP   3 IN FLOW TIME STEP 573 STRESS PERIOD   1
     6 TOTAL ITERATIONS
 
 SOLVING FOR HEAD 
 FLOW MODEL IS TRANSIENT
 FLOW MODEL CONTAINS CONSTANT-HEAD CELLS


 MAXIMUM STEPSIZE DURING WHICH ANY PARTICLE CANNOT MOVE MORE THAN ONE CELL
 =  6.117    (WHEN MIN. R.F.=1)  AT K=   7, I=   1, J=  47

 MAXIMUM STEPSIZE WHICH MEETS STABILITY CRITERION OF THE ADVECTION TERM
 (FOR PURE FINITE-DIFFERENCE OPTION, MIXELM=0) 
 =  4.020    (WHEN MIN. R.F.=1)  AT K=   2, I=   1, J=  43


 TOTAL NUMBER OF POINT SOURCES/SINKS PRESENT IN THE FLOW MODEL =    62

 MAXIMUM STEPSIZE WHICH MEETS STABILITY CRITERION OF THE SINK & SOURCE TERM
 =  179.2    (WHEN MIN. R.F.=1)  AT K=   2, I=   1, J= 120

 MAXIMUM STEPSIZE WHICH MEETS STABILITY CRITERION OF THE DISPERSION TERM
 =  20.29    (WHEN MIN. R.F.=1)  AT K=   1, I=   1, J=  31
     1 CALLS TO GCG PACKAGE FOR TRANSPORT TIME STEP   4 IN FLOW TIME STEP 573 STRESS PERIOD   1
     5 TOTAL ITERATIONS
  MAXIMUM CONCENTRATION CHANGES FOR EACH ITERATION:
  MAX. CHANGE LAYER,ROW,COL MAX. CHANGE LAYER,ROW,COL MAX. CHANGE LAYER,ROW,COL MAX. CHANGE LAYER,ROW,COL MAX. CHANGE LAYER,ROW,COL
 ------------------------------------------------------------------------------------------------------------------------------------
   0.1742E-01 (  2,  1, 41)  0.4139E-03 (  2,  1, 76)  0.1411E-04 (  2,  1, 78)  0.4922E-06 (  3,  1, 82)  0.1666E-07 (  4,  1, 82)


                                          ================================================
                                                         FROM TIME =   5730.0     TO    5740.0    

 
 SOLVING FOR HEAD 
 FLOW MODEL IS TRANSIENT
 FLOW MODEL CONTAINS CONSTANT-HEAD CELLS


 MAXIMUM STEPSIZE DURING WHICH ANY PARTICLE CANNOT MOVE MORE THAN ONE CELL
 =  6.199    (WHEN MIN. R.F.=1)  AT K=   7, I=   1, J=  47

 MAXIMUM STEPSIZE WHICH MEETS STABILITY CRITERION OF THE ADVECTION TERM
 (FOR PURE FINITE-DIFFERENCE OPTION, MIXELM=0) 
 =  3.897    (WHEN MIN. R.F.=1)  AT K=   2, I=   1, J=  43


 TOTAL NUMBER OF POINT SOURCES/SINKS PRESENT IN THE FLOW MODEL =    62

 MAXIMUM STEPSIZE WHICH MEETS STABILITY CRITERION OF THE SINK & SOURCE TERM
 =  180.3    (WHEN MIN. R.F.=1)  AT K=   2, I=   1, J= 120

 MAXIMUM STEPSIZE WHICH MEETS STABILITY CRITERION OF THE DISPERSION TERM
 =  20.29    (WHEN MIN. R.F.=1)  AT K=   1, I=   1, J=  31


     1 CALLS TO GCG PACKAGE FOR TRANSPORT TIME STEP   1 IN FLOW TIME STEP 574 STRESS PERIOD   1
     6 TOTAL ITERATIONS

 NO OUTPUT CONTROL FOR STRESS PERIOD    1   TIME STEP 574
 
 SOLVING FOR HEAD 
 FLOW MODEL IS TRANSIENT
 FLOW MODEL CONTAINS CONSTANT-HEAD CELLS


 MAXIMUM STEPSIZE DURING WHICH ANY PARTICLE CANNOT MOVE MORE THAN ONE CELL
 =  6.326    (WHEN MIN. R.F.=1)  AT K=   8, I=   1, J=  47

 MAXIMUM STEPSIZE WHICH MEETS STABILITY CRITERION OF THE ADVECTION TERM
 (FOR PURE FINITE-DIFFERENCE OPTION, MIXELM=0) 
 =  3.782    (WHEN MIN. R.F.=1)  AT K=   2, I=   1, J=  43


 TOTAL NUMBER OF POINT SOURCES/SINKS PRESENT IN THE FLOW MODEL =    62

 MAXIMUM STEPSIZE WHICH MEETS STABILITY CRITERION OF THE SINK & SOURCE TERM
 =  175.6    (WHEN MIN. R.F.=1)  AT K=   2, I=   1, J= 120

 MAXIMUM STEPSIZE WHICH MEETS STABILITY CRITERION OF THE DISPERSION TERM
 =  20.29    (WHEN MIN. R.F.=1)  AT K=   1, I=   1, J=  31
     1 CALLS TO GCG PACKAGE FOR TRANSPORT TIME STEP   2 IN FLOW TIME STEP 574 STRESS PERIOD   1
     6 TOTAL ITERATIONS
 
 SOLVING FOR HEAD 
 FLOW MODEL IS TRANSIENT
 FLOW MODEL CONTAINS CONSTANT-HEAD CELLS


 MAXIMUM STEPSIZE DURING WHICH ANY PARTICLE CANNOT MOVE MORE THAN ONE CELL
 =  6.385    (WHEN MIN. R.F.=1)  AT K=  28, I=   1, J=  52

 MAXIMUM STEPSIZE WHICH MEETS STABILITY CRITERION OF THE ADVECTION TERM
 (FOR PURE FINITE-DIFFERENCE OPTION, MIXELM=0) 
 =  3.810    (WHEN MIN. R.F.=1)  AT K=   2, I=   1, J=  43


 TOTAL NUMBER OF POINT SOURCES/SINKS PRESENT IN THE FLOW MODEL =    62

 MAXIMUM STEPSIZE WHICH MEETS STABILITY CRITERION OF THE SINK & SOURCE TERM
 =  174.9    (WHEN MIN. R.F.=1)  AT K=   2, I=   1, J= 120

 MAXIMUM STEPSIZE WHICH MEETS STABILITY CRITERION OF THE DISPERSION TERM
 =  20.29    (WHEN MIN. R.F.=1)  AT K=   1, I=   1, J=  31
     1 CALLS TO GCG PACKAGE FOR TRANSPORT TIME STEP   3 IN FLOW TIME STEP 574 STRESS PERIOD   1
     6 TOTAL ITERATIONS
 
 SOLVING FOR HEAD 
 FLOW MODEL IS TRANSIENT
 FLOW MODEL CONTAINS CONSTANT-HEAD CELLS


 MAXIMUM STEPSIZE DURING WHICH ANY PARTICLE CANNOT MOVE MORE THAN ONE CELL
 =  6.377    (WHEN MIN. R.F.=1)  AT K=  28, I=   1, J=  52

 MAXIMUM STEPSIZE WHICH MEETS STABILITY CRITERION OF THE ADVECTION TERM
 (FOR PURE FINITE-DIFFERENCE OPTION, MIXELM=0) 
 =  3.946    (WHEN MIN. R.F.=1)  AT K=   2, I=   1, J=  43


 TOTAL NUMBER OF POINT SOURCES/SINKS PRESENT IN THE FLOW MODEL =    62

 MAXIMUM STEPSIZE WHICH MEETS STABILITY CRITERION OF THE SINK & SOURCE TERM
 =  175.3    (WHEN MIN. R.F.=1)  AT K=   2, I=   1, J= 120

 MAXIMUM STEPSIZE WHICH MEETS STABILITY CRITERION OF THE DISPERSION TERM
 =  20.29    (WHEN MIN. R.F.=1)  AT K=   1, I=   1, J=  31
     1 CALLS TO GCG PACKAGE FOR TRANSPORT TIME STEP   4 IN FLOW TIME STEP 574 STRESS PERIOD   1
     5 TOTAL ITERATIONS
  MAXIMUM CONCENTRATION CHANGES FOR EACH ITERATION:
  MAX. CHANGE LAYER,ROW,COL MAX. CHANGE LAYER,ROW,COL MAX. CHANGE LAYER,ROW,COL MAX. CHANGE LAYER,ROW,COL MAX. CHANGE LAYER,ROW,COL
 ------------------------------------------------------------------------------------------------------------------------------------
   0.1384E-01 (  2,  1, 77)  0.2385E-03 (  2,  1, 44)  0.6447E-05 (  3,  1, 44)  0.1777E-06 (  3,  1, 41)  0.4766E-08 (  3,  1, 33)


                                          ================================================
                                                         FROM TIME =   5740.0     TO    5750.0    

 
 SOLVING FOR HEAD 
 FLOW MODEL IS TRANSIENT
 FLOW MODEL CONTAINS CONSTANT-HEAD CELLS


 MAXIMUM STEPSIZE DURING WHICH ANY PARTICLE CANNOT MOVE MORE THAN ONE CELL
 =  6.377    (WHEN MIN. R.F.=1)  AT K=  28, I=   1, J=  52

 MAXIMUM STEPSIZE WHICH MEETS STABILITY CRITERION OF THE ADVECTION TERM
 (FOR PURE FINITE-DIFFERENCE OPTION, MIXELM=0) 
 =  4.066    (WHEN MIN. R.F.=1)  AT K=   2, I=   1, J=  43


 TOTAL NUMBER OF POINT SOURCES/SINKS PRESENT IN THE FLOW MODEL =    62

 MAXIMUM STEPSIZE WHICH MEETS STABILITY CRITERION OF THE SINK & SOURCE TERM
 =  178.2    (WHEN MIN. R.F.=1)  AT K=   2, I=   1, J= 120

 MAXIMUM STEPSIZE WHICH MEETS STABILITY CRITERION OF THE DISPERSION TERM
 =  20.29    (WHEN MIN. R.F.=1)  AT K=   1, I=   1, J=  31


     1 CALLS TO GCG PACKAGE FOR TRANSPORT TIME STEP   1 IN FLOW TIME STEP 575 STRESS PERIOD   1
     6 TOTAL ITERATIONS

 NO OUTPUT CONTROL FOR STRESS PERIOD    1   TIME STEP 575
 
 SOLVING FOR HEAD 
 FLOW MODEL IS TRANSIENT
 FLOW MODEL CONTAINS CONSTANT-HEAD CELLS


 MAXIMUM STEPSIZE DURING WHICH ANY PARTICLE CANNOT MOVE MORE THAN ONE CELL
 =  6.339    (WHEN MIN. R.F.=1)  AT K=   4, I=   1, J=  74

 MAXIMUM STEPSIZE WHICH MEETS STABILITY CRITERION OF THE ADVECTION TERM
 (FOR PURE FINITE-DIFFERENCE OPTION, MIXELM=0) 
 =  4.201    (WHEN MIN. R.F.=1)  AT K=  30, I=   1, J=  26


 TOTAL NUMBER OF POINT SOURCES/SINKS PRESENT IN THE FLOW MODEL =    62

 MAXIMUM STEPSIZE WHICH MEETS STABILITY CRITERION OF THE SINK & SOURCE TERM
 =  171.9    (WHEN MIN. R.F.=1)  AT K=   2, I=   1, J= 120

 MAXIMUM STEPSIZE WHICH MEETS STABILITY CRITERION OF THE DISPERSION TERM
 =  20.29    (WHEN MIN. R.F.=1)  AT K=   1, I=   1, J=  31
     1 CALLS TO GCG PACKAGE FOR TRANSPORT TIME STEP   2 IN FLOW TIME STEP 575 STRESS PERIOD   1
     6 TOTAL ITERATIONS
 
 SOLVING FOR HEAD 
 FLOW MODEL IS TRANSIENT
 FLOW MODEL CONTAINS CONSTANT-HEAD CELLS


 MAXIMUM STEPSIZE DURING WHICH ANY PARTICLE CANNOT MOVE MORE THAN ONE CELL
 =  5.947    (WHEN MIN. R.F.=1)  AT K=   4, I=   1, J=  74

 MAXIMUM STEPSIZE WHICH MEETS STABILITY CRITERION OF THE ADVECTION TERM
 (FOR PURE FINITE-DIFFERENCE OPTION, MIXELM=0) 
 =  4.030    (WHEN MIN. R.F.=1)  AT K=   2, I=   1, J=  44


 TOTAL NUMBER OF POINT SOURCES/SINKS PRESENT IN THE FLOW MODEL =    62

 MAXIMUM STEPSIZE WHICH MEETS STABILITY CRITERION OF THE SINK & SOURCE TERM
 =  168.4    (WHEN MIN. R.F.=1)  AT K=   2, I=   1, J= 120

 MAXIMUM STEPSIZE WHICH MEETS STABILITY CRITERION OF THE DISPERSION TERM
 =  20.29    (WHEN MIN. R.F.=1)  AT K=   1, I=   1, J=  31
     1 CALLS TO GCG PACKAGE FOR TRANSPORT TIME STEP   3 IN FLOW TIME STEP 575 STRESS PERIOD   1
     6 TOTAL ITERATIONS
 
 SOLVING FOR HEAD 
 FLOW MODEL IS TRANSIENT
 FLOW MODEL CONTAINS CONSTANT-HEAD CELLS


 MAXIMUM STEPSIZE DURING WHICH ANY PARTICLE CANNOT MOVE MORE THAN ONE CELL
 =  5.609    (WHEN MIN. R.F.=1)  AT K=   4, I=   1, J=  74

 MAXIMUM STEPSIZE WHICH MEETS STABILITY CRITERION OF THE ADVECTION TERM
 (FOR PURE FINITE-DIFFERENCE OPTION, MIXELM=0) 
 =  3.952    (WHEN MIN. R.F.=1)  AT K=   2, I=   1, J=  44


 TOTAL NUMBER OF POINT SOURCES/SINKS PRESENT IN THE FLOW MODEL =    62

 MAXIMUM STEPSIZE WHICH MEETS STABILITY CRITERION OF THE SINK & SOURCE TERM
 =  170.4    (WHEN MIN. R.F.=1)  AT K=   2, I=   1, J= 120

 MAXIMUM STEPSIZE WHICH MEETS STABILITY CRITERION OF THE DISPERSION TERM
 =  20.29    (WHEN MIN. R.F.=1)  AT K=   1, I=   1, J=  31
     1 CALLS TO GCG PACKAGE FOR TRANSPORT TIME STEP   4 IN FLOW TIME STEP 575 STRESS PERIOD   1
     4 TOTAL ITERATIONS
  MAXIMUM CONCENTRATION CHANGES FOR EACH ITERATION:
  MAX. CHANGE LAYER,ROW,COL MAX. CHANGE LAYER,ROW,COL MAX. CHANGE LAYER,ROW,COL MAX. CHANGE LAYER,ROW,COL MAX. CHANGE LAYER,ROW,COL
 ------------------------------------------------------------------------------------------------------------------------------------
   0.9323E-02 (  2,  1, 83)  0.1300E-03 (  2,  1, 46)  0.2136E-05 (  3,  1, 46)  0.4954E-07 (  3,  1, 77)


                                          ================================================
                                                         FROM TIME =   5750.0     TO    5760.0    

 
 SOLVING FOR HEAD 
 FLOW MODEL IS TRANSIENT
 FLOW MODEL CONTAINS CONSTANT-HEAD CELLS


 MAXIMUM STEPSIZE DURING WHICH ANY PARTICLE CANNOT MOVE MORE THAN ONE CELL
 =  5.531    (WHEN MIN. R.F.=1)  AT K=   4, I=   1, J=  74

 MAXIMUM STEPSIZE WHICH MEETS STABILITY CRITERION OF THE ADVECTION TERM
 (FOR PURE FINITE-DIFFERENCE OPTION, MIXELM=0) 
 =  3.959    (WHEN MIN. R.F.=1)  AT K=   2, I=   1, J=  44


 TOTAL NUMBER OF POINT SOURCES/SINKS PRESENT IN THE FLOW MODEL =    62

 MAXIMUM STEPSIZE WHICH MEETS STABILITY CRITERION OF THE SINK & SOURCE TERM
 =  178.9    (WHEN MIN. R.F.=1)  AT K=   2, I=   1, J= 120

 MAXIMUM STEPSIZE WHICH MEETS STABILITY CRITERION OF THE DISPERSION TERM
 =  20.29    (WHEN MIN. R.F.=1)  AT K=   1, I=   1, J=  31


     1 CALLS TO GCG PACKAGE FOR TRANSPORT TIME STEP   1 IN FLOW TIME STEP 576 STRESS PERIOD   1
     6 TOTAL ITERATIONS

 NO OUTPUT CONTROL FOR STRESS PERIOD    1   TIME STEP 576
 
 SOLVING FOR HEAD 
 FLOW MODEL IS TRANSIENT
 FLOW MODEL CONTAINS CONSTANT-HEAD CELLS


 MAXIMUM STEPSIZE DURING WHICH ANY PARTICLE CANNOT MOVE MORE THAN ONE CELL
 =  5.307    (WHEN MIN. R.F.=1)  AT K=   4, I=   1, J=  74

 MAXIMUM STEPSIZE WHICH MEETS STABILITY CRITERION OF THE ADVECTION TERM
 (FOR PURE FINITE-DIFFERENCE OPTION, MIXELM=0) 
 =  3.900    (WHEN MIN. R.F.=1)  AT K=   2, I=   1, J=  81


 TOTAL NUMBER OF POINT SOURCES/SINKS PRESENT IN THE FLOW MODEL =    62

 MAXIMUM STEPSIZE WHICH MEETS STABILITY CRITERION OF THE SINK & SOURCE TERM
 =  174.0    (WHEN MIN. R.F.=1)  AT K=   2, I=   1, J= 120

 MAXIMUM STEPSIZE WHICH MEETS STABILITY CRITERION OF THE DISPERSION TERM
 =  20.29    (WHEN MIN. R.F.=1)  AT K=   1, I=   1, J=  31
     1 CALLS TO GCG PACKAGE FOR TRANSPORT TIME STEP   2 IN FLOW TIME STEP 576 STRESS PERIOD   1
     6 TOTAL ITERATIONS
 
 SOLVING FOR HEAD 
 FLOW MODEL IS TRANSIENT
 FLOW MODEL CONTAINS CONSTANT-HEAD CELLS


 MAXIMUM STEPSIZE DURING WHICH ANY PARTICLE CANNOT MOVE MORE THAN ONE CELL
 =  5.146    (WHEN MIN. R.F.=1)  AT K=   4, I=   1, J=  74

 MAXIMUM STEPSIZE WHICH MEETS STABILITY CRITERION OF THE ADVECTION TERM
 (FOR PURE FINITE-DIFFERENCE OPTION, MIXELM=0) 
 =  3.937    (WHEN MIN. R.F.=1)  AT K=   2, I=   1, J=  81


 TOTAL NUMBER OF POINT SOURCES/SINKS PRESENT IN THE FLOW MODEL =    62

 MAXIMUM STEPSIZE WHICH MEETS STABILITY CRITERION OF THE SINK & SOURCE TERM
 =  169.9    (WHEN MIN. R.F.=1)  AT K=   2, I=   1, J= 120

 MAXIMUM STEPSIZE WHICH MEETS STABILITY CRITERION OF THE DISPERSION TERM
 =  20.29    (WHEN MIN. R.F.=1)  AT K=   1, I=   1, J=  31
     1 CALLS TO GCG PACKAGE FOR TRANSPORT TIME STEP   3 IN FLOW TIME STEP 576 STRESS PERIOD   1
     6 TOTAL ITERATIONS
 
 SOLVING FOR HEAD 
 FLOW MODEL IS TRANSIENT
 FLOW MODEL CONTAINS CONSTANT-HEAD CELLS


 MAXIMUM STEPSIZE DURING WHICH ANY PARTICLE CANNOT MOVE MORE THAN ONE CELL
 =  5.042    (WHEN MIN. R.F.=1)  AT K=   4, I=   1, J=  74

 MAXIMUM STEPSIZE WHICH MEETS STABILITY CRITERION OF THE ADVECTION TERM
 (FOR PURE FINITE-DIFFERENCE OPTION, MIXELM=0) 
 =  4.075    (WHEN MIN. R.F.=1)  AT K=   2, I=   1, J=  80


 TOTAL NUMBER OF POINT SOURCES/SINKS PRESENT IN THE FLOW MODEL =    62

 MAXIMUM STEPSIZE WHICH MEETS STABILITY CRITERION OF THE SINK & SOURCE TERM
 =  167.7    (WHEN MIN. R.F.=1)  AT K=   2, I=   1, J= 120

 MAXIMUM STEPSIZE WHICH MEETS STABILITY CRITERION OF THE DISPERSION TERM
 =  20.29    (WHEN MIN. R.F.=1)  AT K=   1, I=   1, J=  31
     1 CALLS TO GCG PACKAGE FOR TRANSPORT TIME STEP   4 IN FLOW TIME STEP 576 STRESS PERIOD   1
     5 TOTAL ITERATIONS
  MAXIMUM CONCENTRATION CHANGES FOR EACH ITERATION:
  MAX. CHANGE LAYER,ROW,COL MAX. CHANGE LAYER,ROW,COL MAX. CHANGE LAYER,ROW,COL MAX. CHANGE LAYER,ROW,COL MAX. CHANGE LAYER,ROW,COL
 ------------------------------------------------------------------------------------------------------------------------------------
   0.1419E-01 (  2,  1, 82)  0.2258E-03 (  2,  1, 45)  0.6680E-05 (  3,  1, 80)  0.1478E-06 (  4,  1, 80)  0.3494E-08 (  4,  1, 46)


                                          ================================================
                                                         FROM TIME =   5760.0     TO    5770.0    

 
 SOLVING FOR HEAD 
 FLOW MODEL IS TRANSIENT
 FLOW MODEL CONTAINS CONSTANT-HEAD CELLS


 MAXIMUM STEPSIZE DURING WHICH ANY PARTICLE CANNOT MOVE MORE THAN ONE CELL
 =  5.017    (WHEN MIN. R.F.=1)  AT K=   4, I=   1, J=  74

 MAXIMUM STEPSIZE WHICH MEETS STABILITY CRITERION OF THE ADVECTION TERM
 (FOR PURE FINITE-DIFFERENCE OPTION, MIXELM=0) 
 =  3.922    (WHEN MIN. R.F.=1)  AT K=   2, I=   1, J=  80


 TOTAL NUMBER OF POINT SOURCES/SINKS PRESENT IN THE FLOW MODEL =    62

 MAXIMUM STEPSIZE WHICH MEETS STABILITY CRITERION OF THE SINK & SOURCE TERM
 =  165.9    (WHEN MIN. R.F.=1)  AT K=   2, I=   1, J= 120

 MAXIMUM STEPSIZE WHICH MEETS STABILITY CRITERION OF THE DISPERSION TERM
 =  20.29    (WHEN MIN. R.F.=1)  AT K=   1, I=   1, J=  31


     1 CALLS TO GCG PACKAGE FOR TRANSPORT TIME STEP   1 IN FLOW TIME STEP 577 STRESS PERIOD   1
     6 TOTAL ITERATIONS

 NO OUTPUT CONTROL FOR STRESS PERIOD    1   TIME STEP 577
 
 SOLVING FOR HEAD 
 FLOW MODEL IS TRANSIENT
 FLOW MODEL CONTAINS CONSTANT-HEAD CELLS


 MAXIMUM STEPSIZE DURING WHICH ANY PARTICLE CANNOT MOVE MORE THAN ONE CELL
 =  4.991    (WHEN MIN. R.F.=1)  AT K=   4, I=   1, J=  74

 MAXIMUM STEPSIZE WHICH MEETS STABILITY CRITERION OF THE ADVECTION TERM
 (FOR PURE FINITE-DIFFERENCE OPTION, MIXELM=0) 
 =  3.665    (WHEN MIN. R.F.=1)  AT K=   2, I=   1, J=  80


 TOTAL NUMBER OF POINT SOURCES/SINKS PRESENT IN THE FLOW MODEL =    62

 MAXIMUM STEPSIZE WHICH MEETS STABILITY CRITERION OF THE SINK & SOURCE TERM
 =  160.3    (WHEN MIN. R.F.=1)  AT K=   2, I=   1, J= 120

 MAXIMUM STEPSIZE WHICH MEETS STABILITY CRITERION OF THE DISPERSION TERM
 =  20.29    (WHEN MIN. R.F.=1)  AT K=   1, I=   1, J=  31
     1 CALLS TO GCG PACKAGE FOR TRANSPORT TIME STEP   2 IN FLOW TIME STEP 577 STRESS PERIOD   1
     6 TOTAL ITERATIONS
 
 SOLVING FOR HEAD 
 FLOW MODEL IS TRANSIENT
 FLOW MODEL CONTAINS CONSTANT-HEAD CELLS


 MAXIMUM STEPSIZE DURING WHICH ANY PARTICLE CANNOT MOVE MORE THAN ONE CELL
 =  5.011    (WHEN MIN. R.F.=1)  AT K=   4, I=   1, J=  74

 MAXIMUM STEPSIZE WHICH MEETS STABILITY CRITERION OF THE ADVECTION TERM
 (FOR PURE FINITE-DIFFERENCE OPTION, MIXELM=0) 
 =  3.609    (WHEN MIN. R.F.=1)  AT K=   2, I=   1, J=  80


 TOTAL NUMBER OF POINT SOURCES/SINKS PRESENT IN THE FLOW MODEL =    62

 MAXIMUM STEPSIZE WHICH MEETS STABILITY CRITERION OF THE SINK & SOURCE TERM
 =  164.4    (WHEN MIN. R.F.=1)  AT K=   2, I=   1, J= 120

 MAXIMUM STEPSIZE WHICH MEETS STABILITY CRITERION OF THE DISPERSION TERM
 =  20.29    (WHEN MIN. R.F.=1)  AT K=   1, I=   1, J=  31
     1 CALLS TO GCG PACKAGE FOR TRANSPORT TIME STEP   3 IN FLOW TIME STEP 577 STRESS PERIOD   1
     6 TOTAL ITERATIONS
 
 SOLVING FOR HEAD 
 FLOW MODEL IS TRANSIENT
 FLOW MODEL CONTAINS CONSTANT-HEAD CELLS


 MAXIMUM STEPSIZE DURING WHICH ANY PARTICLE CANNOT MOVE MORE THAN ONE CELL
 =  5.074    (WHEN MIN. R.F.=1)  AT K=   4, I=   1, J=  74

 MAXIMUM STEPSIZE WHICH MEETS STABILITY CRITERION OF THE ADVECTION TERM
 (FOR PURE FINITE-DIFFERENCE OPTION, MIXELM=0) 
 =  3.736    (WHEN MIN. R.F.=1)  AT K=   2, I=   1, J=  80


 TOTAL NUMBER OF POINT SOURCES/SINKS PRESENT IN THE FLOW MODEL =    62

 MAXIMUM STEPSIZE WHICH MEETS STABILITY CRITERION OF THE SINK & SOURCE TERM
 =  169.6    (WHEN MIN. R.F.=1)  AT K=   2, I=   1, J= 120

 MAXIMUM STEPSIZE WHICH MEETS STABILITY CRITERION OF THE DISPERSION TERM
 =  20.29    (WHEN MIN. R.F.=1)  AT K=   1, I=   1, J=  31
     1 CALLS TO GCG PACKAGE FOR TRANSPORT TIME STEP   4 IN FLOW TIME STEP 577 STRESS PERIOD   1
     5 TOTAL ITERATIONS
  MAXIMUM CONCENTRATION CHANGES FOR EACH ITERATION:
  MAX. CHANGE LAYER,ROW,COL MAX. CHANGE LAYER,ROW,COL MAX. CHANGE LAYER,ROW,COL MAX. CHANGE LAYER,ROW,COL MAX. CHANGE LAYER,ROW,COL
 ------------------------------------------------------------------------------------------------------------------------------------
   0.1559E-01 (  2,  1, 81)  0.2750E-03 (  2,  1, 79)  0.1025E-04 (  3,  1, 79)  0.2346E-06 (  3,  1, 82)  0.5291E-08 (  4,  1, 77)


                                          ================================================
                                                         FROM TIME =   5770.0     TO    5780.0    

 
 SOLVING FOR HEAD 
 FLOW MODEL IS TRANSIENT
 FLOW MODEL CONTAINS CONSTANT-HEAD CELLS


 MAXIMUM STEPSIZE DURING WHICH ANY PARTICLE CANNOT MOVE MORE THAN ONE CELL
 =  5.097    (WHEN MIN. R.F.=1)  AT K=   5, I=   1, J=  74

 MAXIMUM STEPSIZE WHICH MEETS STABILITY CRITERION OF THE ADVECTION TERM
 (FOR PURE FINITE-DIFFERENCE OPTION, MIXELM=0) 
 =  3.882    (WHEN MIN. R.F.=1)  AT K=   2, I=   1, J=  80


 TOTAL NUMBER OF POINT SOURCES/SINKS PRESENT IN THE FLOW MODEL =    62

 MAXIMUM STEPSIZE WHICH MEETS STABILITY CRITERION OF THE SINK & SOURCE TERM
 =  171.3    (WHEN MIN. R.F.=1)  AT K=   2, I=   1, J= 120

 MAXIMUM STEPSIZE WHICH MEETS STABILITY CRITERION OF THE DISPERSION TERM
 =  20.29    (WHEN MIN. R.F.=1)  AT K=   1, I=   1, J=  31


     1 CALLS TO GCG PACKAGE FOR TRANSPORT TIME STEP   1 IN FLOW TIME STEP 578 STRESS PERIOD   1
     6 TOTAL ITERATIONS

 NO OUTPUT CONTROL FOR STRESS PERIOD    1   TIME STEP 578
 
 SOLVING FOR HEAD 
 FLOW MODEL IS TRANSIENT
 FLOW MODEL CONTAINS CONSTANT-HEAD CELLS


 MAXIMUM STEPSIZE DURING WHICH ANY PARTICLE CANNOT MOVE MORE THAN ONE CELL
 =  5.153    (WHEN MIN. R.F.=1)  AT K=   5, I=   1, J=  74

 MAXIMUM STEPSIZE WHICH MEETS STABILITY CRITERION OF THE ADVECTION TERM
 (FOR PURE FINITE-DIFFERENCE OPTION, MIXELM=0) 
 =  3.774    (WHEN MIN. R.F.=1)  AT K=   2, I=   1, J=  79


 TOTAL NUMBER OF POINT SOURCES/SINKS PRESENT IN THE FLOW MODEL =    62

 MAXIMUM STEPSIZE WHICH MEETS STABILITY CRITERION OF THE SINK & SOURCE TERM
 =  163.8    (WHEN MIN. R.F.=1)  AT K=   2, I=   1, J= 120

 MAXIMUM STEPSIZE WHICH MEETS STABILITY CRITERION OF THE DISPERSION TERM
 =  20.29    (WHEN MIN. R.F.=1)  AT K=   1, I=   1, J=  31
     1 CALLS TO GCG PACKAGE FOR TRANSPORT TIME STEP   2 IN FLOW TIME STEP 578 STRESS PERIOD   1
     6 TOTAL ITERATIONS
 
 SOLVING FOR HEAD 
 FLOW MODEL IS TRANSIENT
 FLOW MODEL CONTAINS CONSTANT-HEAD CELLS


 MAXIMUM STEPSIZE DURING WHICH ANY PARTICLE CANNOT MOVE MORE THAN ONE CELL
 =  5.251    (WHEN MIN. R.F.=1)  AT K=   5, I=   1, J=  74

 MAXIMUM STEPSIZE WHICH MEETS STABILITY CRITERION OF THE ADVECTION TERM
 (FOR PURE FINITE-DIFFERENCE OPTION, MIXELM=0) 
 =  3.590    (WHEN MIN. R.F.=1)  AT K=   2, I=   1, J=  79


 TOTAL NUMBER OF POINT SOURCES/SINKS PRESENT IN THE FLOW MODEL =    62

 MAXIMUM STEPSIZE WHICH MEETS STABILITY CRITERION OF THE SINK & SOURCE TERM
 =  162.7    (WHEN MIN. R.F.=1)  AT K=   2, I=   1, J= 120

 MAXIMUM STEPSIZE WHICH MEETS STABILITY CRITERION OF THE DISPERSION TERM
 =  20.29    (WHEN MIN. R.F.=1)  AT K=   1, I=   1, J=  31
     1 CALLS TO GCG PACKAGE FOR TRANSPORT TIME STEP   3 IN FLOW TIME STEP 578 STRESS PERIOD   1
     6 TOTAL ITERATIONS
 
 SOLVING FOR HEAD 
 FLOW MODEL IS TRANSIENT
 FLOW MODEL CONTAINS CONSTANT-HEAD CELLS


 MAXIMUM STEPSIZE DURING WHICH ANY PARTICLE CANNOT MOVE MORE THAN ONE CELL
 =  5.382    (WHEN MIN. R.F.=1)  AT K=   5, I=   1, J=  74

 MAXIMUM STEPSIZE WHICH MEETS STABILITY CRITERION OF THE ADVECTION TERM
 (FOR PURE FINITE-DIFFERENCE OPTION, MIXELM=0) 
 =  3.561    (WHEN MIN. R.F.=1)  AT K=   2, I=   1, J=  79


 TOTAL NUMBER OF POINT SOURCES/SINKS PRESENT IN THE FLOW MODEL =    62

 MAXIMUM STEPSIZE WHICH MEETS STABILITY CRITERION OF THE SINK & SOURCE TERM
 =  165.6    (WHEN MIN. R.F.=1)  AT K=   2, I=   1, J= 120

 MAXIMUM STEPSIZE WHICH MEETS STABILITY CRITERION OF THE DISPERSION TERM
 =  20.29    (WHEN MIN. R.F.=1)  AT K=   1, I=   1, J=  31
     1 CALLS TO GCG PACKAGE FOR TRANSPORT TIME STEP   4 IN FLOW TIME STEP 578 STRESS PERIOD   1
     5 TOTAL ITERATIONS
  MAXIMUM CONCENTRATION CHANGES FOR EACH ITERATION:
  MAX. CHANGE LAYER,ROW,COL MAX. CHANGE LAYER,ROW,COL MAX. CHANGE LAYER,ROW,COL MAX. CHANGE LAYER,ROW,COL MAX. CHANGE LAYER,ROW,COL
 ------------------------------------------------------------------------------------------------------------------------------------
   0.1773E-01 (  2,  1, 80)  0.3983E-03 (  2,  1, 80)  0.1296E-04 (  3,  1, 78)  0.6376E-06 (  3,  1, 76)  0.1591E-07 (  4,  1, 76)


                                          ================================================
                                                         FROM TIME =   5780.0     TO    5790.0    

 
 SOLVING FOR HEAD 
 FLOW MODEL IS TRANSIENT
 FLOW MODEL CONTAINS CONSTANT-HEAD CELLS


 MAXIMUM STEPSIZE DURING WHICH ANY PARTICLE CANNOT MOVE MORE THAN ONE CELL
 =  5.433    (WHEN MIN. R.F.=1)  AT K=   6, I=   1, J=  74

 MAXIMUM STEPSIZE WHICH MEETS STABILITY CRITERION OF THE ADVECTION TERM
 (FOR PURE FINITE-DIFFERENCE OPTION, MIXELM=0) 
 =  3.603    (WHEN MIN. R.F.=1)  AT K=   2, I=   1, J=  79


 TOTAL NUMBER OF POINT SOURCES/SINKS PRESENT IN THE FLOW MODEL =    62

 MAXIMUM STEPSIZE WHICH MEETS STABILITY CRITERION OF THE SINK & SOURCE TERM
 =  172.7    (WHEN MIN. R.F.=1)  AT K=   2, I=   1, J= 120

 MAXIMUM STEPSIZE WHICH MEETS STABILITY CRITERION OF THE DISPERSION TERM
 =  20.29    (WHEN MIN. R.F.=1)  AT K=   1, I=   1, J=  31


     1 CALLS TO GCG PACKAGE FOR TRANSPORT TIME STEP   1 IN FLOW TIME STEP 579 STRESS PERIOD   1
     6 TOTAL ITERATIONS

 NO OUTPUT CONTROL FOR STRESS PERIOD    1   TIME STEP 579
 
 SOLVING FOR HEAD 
 FLOW MODEL IS TRANSIENT
 FLOW MODEL CONTAINS CONSTANT-HEAD CELLS


 MAXIMUM STEPSIZE DURING WHICH ANY PARTICLE CANNOT MOVE MORE THAN ONE CELL
 =  5.540    (WHEN MIN. R.F.=1)  AT K=   6, I=   1, J=  74

 MAXIMUM STEPSIZE WHICH MEETS STABILITY CRITERION OF THE ADVECTION TERM
 (FOR PURE FINITE-DIFFERENCE OPTION, MIXELM=0) 
 =  3.791    (WHEN MIN. R.F.=1)  AT K=   2, I=   1, J=  79


 TOTAL NUMBER OF POINT SOURCES/SINKS PRESENT IN THE FLOW MODEL =    62

 MAXIMUM STEPSIZE WHICH MEETS STABILITY CRITERION OF THE SINK & SOURCE TERM
 =  169.4    (WHEN MIN. R.F.=1)  AT K=   2, I=   1, J= 120

 MAXIMUM STEPSIZE WHICH MEETS STABILITY CRITERION OF THE DISPERSION TERM
 =  20.29    (WHEN MIN. R.F.=1)  AT K=   1, I=   1, J=  31
     1 CALLS TO GCG PACKAGE FOR TRANSPORT TIME STEP   2 IN FLOW TIME STEP 579 STRESS PERIOD   1
     6 TOTAL ITERATIONS
 
 SOLVING FOR HEAD 
 FLOW MODEL IS TRANSIENT
 FLOW MODEL CONTAINS CONSTANT-HEAD CELLS


 MAXIMUM STEPSIZE DURING WHICH ANY PARTICLE CANNOT MOVE MORE THAN ONE CELL
 =  5.675    (WHEN MIN. R.F.=1)  AT K=   6, I=   1, J=  74

 MAXIMUM STEPSIZE WHICH MEETS STABILITY CRITERION OF THE ADVECTION TERM
 (FOR PURE FINITE-DIFFERENCE OPTION, MIXELM=0) 
 =  3.990    (WHEN MIN. R.F.=1)  AT K=   2, I=   1, J=  78


 TOTAL NUMBER OF POINT SOURCES/SINKS PRESENT IN THE FLOW MODEL =    62

 MAXIMUM STEPSIZE WHICH MEETS STABILITY CRITERION OF THE SINK & SOURCE TERM
 =  168.6    (WHEN MIN. R.F.=1)  AT K=   2, I=   1, J= 120

 MAXIMUM STEPSIZE WHICH MEETS STABILITY CRITERION OF THE DISPERSION TERM
 =  20.29    (WHEN MIN. R.F.=1)  AT K=   1, I=   1, J=  31
     1 CALLS TO GCG PACKAGE FOR TRANSPORT TIME STEP   3 IN FLOW TIME STEP 579 STRESS PERIOD   1
     6 TOTAL ITERATIONS
 
 SOLVING FOR HEAD 
 FLOW MODEL IS TRANSIENT
 FLOW MODEL CONTAINS CONSTANT-HEAD CELLS


 MAXIMUM STEPSIZE DURING WHICH ANY PARTICLE CANNOT MOVE MORE THAN ONE CELL
 =  5.796    (WHEN MIN. R.F.=1)  AT K=   7, I=   1, J=  74

 MAXIMUM STEPSIZE WHICH MEETS STABILITY CRITERION OF THE ADVECTION TERM
 (FOR PURE FINITE-DIFFERENCE OPTION, MIXELM=0) 
 =  3.736    (WHEN MIN. R.F.=1)  AT K=   2, I=   1, J=  78


 TOTAL NUMBER OF POINT SOURCES/SINKS PRESENT IN THE FLOW MODEL =    62

 MAXIMUM STEPSIZE WHICH MEETS STABILITY CRITERION OF THE SINK & SOURCE TERM
 =  169.2    (WHEN MIN. R.F.=1)  AT K=   2, I=   1, J= 120

 MAXIMUM STEPSIZE WHICH MEETS STABILITY CRITERION OF THE DISPERSION TERM
 =  20.29    (WHEN MIN. R.F.=1)  AT K=   1, I=   1, J=  31
     1 CALLS TO GCG PACKAGE FOR TRANSPORT TIME STEP   4 IN FLOW TIME STEP 579 STRESS PERIOD   1
     5 TOTAL ITERATIONS
  MAXIMUM CONCENTRATION CHANGES FOR EACH ITERATION:
  MAX. CHANGE LAYER,ROW,COL MAX. CHANGE LAYER,ROW,COL MAX. CHANGE LAYER,ROW,COL MAX. CHANGE LAYER,ROW,COL MAX. CHANGE LAYER,ROW,COL
 ------------------------------------------------------------------------------------------------------------------------------------
   0.2011E-01 (  2,  1, 38)  0.6078E-03 (  2,  1, 78)  0.1670E-04 (  3,  1, 78)  0.7889E-06 (  3,  1, 44)  0.2511E-07 (  3,  1, 88)


                                          ================================================
                                                         FROM TIME =   5790.0     TO    5800.0    

 
 SOLVING FOR HEAD 
 FLOW MODEL IS TRANSIENT
 FLOW MODEL CONTAINS CONSTANT-HEAD CELLS


 MAXIMUM STEPSIZE DURING WHICH ANY PARTICLE CANNOT MOVE MORE THAN ONE CELL
 =  5.644    (WHEN MIN. R.F.=1)  AT K=   4, I=   1, J=  47

 MAXIMUM STEPSIZE WHICH MEETS STABILITY CRITERION OF THE ADVECTION TERM
 (FOR PURE FINITE-DIFFERENCE OPTION, MIXELM=0) 
 =  3.671    (WHEN MIN. R.F.=1)  AT K=   2, I=   1, J=  78


 TOTAL NUMBER OF POINT SOURCES/SINKS PRESENT IN THE FLOW MODEL =    62

 MAXIMUM STEPSIZE WHICH MEETS STABILITY CRITERION OF THE SINK & SOURCE TERM
 =  171.1    (WHEN MIN. R.F.=1)  AT K=   2, I=   1, J= 120

 MAXIMUM STEPSIZE WHICH MEETS STABILITY CRITERION OF THE DISPERSION TERM
 =  20.29    (WHEN MIN. R.F.=1)  AT K=   1, I=   1, J=  31


     1 CALLS TO GCG PACKAGE FOR TRANSPORT TIME STEP   1 IN FLOW TIME STEP 580 STRESS PERIOD   1
     6 TOTAL ITERATIONS

 NO OUTPUT CONTROL FOR STRESS PERIOD    1   TIME STEP 580
 
 SOLVING FOR HEAD 
 FLOW MODEL IS TRANSIENT
 FLOW MODEL CONTAINS CONSTANT-HEAD CELLS


 MAXIMUM STEPSIZE DURING WHICH ANY PARTICLE CANNOT MOVE MORE THAN ONE CELL
 =  5.397    (WHEN MIN. R.F.=1)  AT K=   4, I=   1, J=  47

 MAXIMUM STEPSIZE WHICH MEETS STABILITY CRITERION OF THE ADVECTION TERM
 (FOR PURE FINITE-DIFFERENCE OPTION, MIXELM=0) 
 =  3.660    (WHEN MIN. R.F.=1)  AT K=   2, I=   1, J=  78


 TOTAL NUMBER OF POINT SOURCES/SINKS PRESENT IN THE FLOW MODEL =    62

 MAXIMUM STEPSIZE WHICH MEETS STABILITY CRITERION OF THE SINK & SOURCE TERM
 =  170.6    (WHEN MIN. R.F.=1)  AT K=   2, I=   1, J= 120

 MAXIMUM STEPSIZE WHICH MEETS STABILITY CRITERION OF THE DISPERSION TERM
 =  20.29    (WHEN MIN. R.F.=1)  AT K=   1, I=   1, J=  31
     1 CALLS TO GCG PACKAGE FOR TRANSPORT TIME STEP   2 IN FLOW TIME STEP 580 STRESS PERIOD   1
     6 TOTAL ITERATIONS
 
 SOLVING FOR HEAD 
 FLOW MODEL IS TRANSIENT
 FLOW MODEL CONTAINS CONSTANT-HEAD CELLS


 MAXIMUM STEPSIZE DURING WHICH ANY PARTICLE CANNOT MOVE MORE THAN ONE CELL
 =  5.243    (WHEN MIN. R.F.=1)  AT K=   4, I=   1, J=  47

 MAXIMUM STEPSIZE WHICH MEETS STABILITY CRITERION OF THE ADVECTION TERM
 (FOR PURE FINITE-DIFFERENCE OPTION, MIXELM=0) 
 =  3.761    (WHEN MIN. R.F.=1)  AT K=   2, I=   1, J=  78


 TOTAL NUMBER OF POINT SOURCES/SINKS PRESENT IN THE FLOW MODEL =    62

 MAXIMUM STEPSIZE WHICH MEETS STABILITY CRITERION OF THE SINK & SOURCE TERM
 =  173.9    (WHEN MIN. R.F.=1)  AT K=   2, I=   1, J= 120

 MAXIMUM STEPSIZE WHICH MEETS STABILITY CRITERION OF THE DISPERSION TERM
 =  20.29    (WHEN MIN. R.F.=1)  AT K=   1, I=   1, J=  31
     1 CALLS TO GCG PACKAGE FOR TRANSPORT TIME STEP   3 IN FLOW TIME STEP 580 STRESS PERIOD   1
     6 TOTAL ITERATIONS
 
 SOLVING FOR HEAD 
 FLOW MODEL IS TRANSIENT
 FLOW MODEL CONTAINS CONSTANT-HEAD CELLS


 MAXIMUM STEPSIZE DURING WHICH ANY PARTICLE CANNOT MOVE MORE THAN ONE CELL
 =  5.171    (WHEN MIN. R.F.=1)  AT K=   4, I=   1, J=  47

 MAXIMUM STEPSIZE WHICH MEETS STABILITY CRITERION OF THE ADVECTION TERM
 (FOR PURE FINITE-DIFFERENCE OPTION, MIXELM=0) 
 =  4.023    (WHEN MIN. R.F.=1)  AT K=   2, I=   1, J=  78


 TOTAL NUMBER OF POINT SOURCES/SINKS PRESENT IN THE FLOW MODEL =    62

 MAXIMUM STEPSIZE WHICH MEETS STABILITY CRITERION OF THE SINK & SOURCE TERM
 =  175.1    (WHEN MIN. R.F.=1)  AT K=   2, I=   1, J= 120

 MAXIMUM STEPSIZE WHICH MEETS STABILITY CRITERION OF THE DISPERSION TERM
 =  20.29    (WHEN MIN. R.F.=1)  AT K=   1, I=   1, J=  31
     1 CALLS TO GCG PACKAGE FOR TRANSPORT TIME STEP   4 IN FLOW TIME STEP 580 STRESS PERIOD   1
     5 TOTAL ITERATIONS
  MAXIMUM CONCENTRATION CHANGES FOR EACH ITERATION:
  MAX. CHANGE LAYER,ROW,COL MAX. CHANGE LAYER,ROW,COL MAX. CHANGE LAYER,ROW,COL MAX. CHANGE LAYER,ROW,COL MAX. CHANGE LAYER,ROW,COL
 ------------------------------------------------------------------------------------------------------------------------------------
   0.2106E-01 (  2,  1, 79)  0.6180E-03 (  2,  1, 77)  0.2142E-04 (  3,  1, 77)  0.6732E-06 (  3,  1, 80)  0.2376E-07 (  5,  1, 80)


                                          ================================================
                                                         FROM TIME =   5800.0     TO    5810.0    

 
 SOLVING FOR HEAD 
 FLOW MODEL IS TRANSIENT
 FLOW MODEL CONTAINS CONSTANT-HEAD CELLS


 MAXIMUM STEPSIZE DURING WHICH ANY PARTICLE CANNOT MOVE MORE THAN ONE CELL
 =  5.165    (WHEN MIN. R.F.=1)  AT K=   4, I=   1, J=  47

 MAXIMUM STEPSIZE WHICH MEETS STABILITY CRITERION OF THE ADVECTION TERM
 (FOR PURE FINITE-DIFFERENCE OPTION, MIXELM=0) 
 =  3.988    (WHEN MIN. R.F.=1)  AT K=   2, I=   1, J=  41


 TOTAL NUMBER OF POINT SOURCES/SINKS PRESENT IN THE FLOW MODEL =    62

 MAXIMUM STEPSIZE WHICH MEETS STABILITY CRITERION OF THE SINK & SOURCE TERM
 =  176.4    (WHEN MIN. R.F.=1)  AT K=   2, I=   1, J= 120

 MAXIMUM STEPSIZE WHICH MEETS STABILITY CRITERION OF THE DISPERSION TERM
 =  20.29    (WHEN MIN. R.F.=1)  AT K=   1, I=   1, J=  31


     1 CALLS TO GCG PACKAGE FOR TRANSPORT TIME STEP   1 IN FLOW TIME STEP 581 STRESS PERIOD   1
     6 TOTAL ITERATIONS

 NO OUTPUT CONTROL FOR STRESS PERIOD    1   TIME STEP 581
 
 SOLVING FOR HEAD 
 FLOW MODEL IS TRANSIENT
 FLOW MODEL CONTAINS CONSTANT-HEAD CELLS


 MAXIMUM STEPSIZE DURING WHICH ANY PARTICLE CANNOT MOVE MORE THAN ONE CELL
 =  5.215    (WHEN MIN. R.F.=1)  AT K=   4, I=   1, J=  47

 MAXIMUM STEPSIZE WHICH MEETS STABILITY CRITERION OF THE ADVECTION TERM
 (FOR PURE FINITE-DIFFERENCE OPTION, MIXELM=0) 
 =  3.806    (WHEN MIN. R.F.=1)  AT K=   2, I=   1, J=  41


 TOTAL NUMBER OF POINT SOURCES/SINKS PRESENT IN THE FLOW MODEL =    62

 MAXIMUM STEPSIZE WHICH MEETS STABILITY CRITERION OF THE SINK & SOURCE TERM
 =  175.7    (WHEN MIN. R.F.=1)  AT K=   2, I=   1, J= 120

 MAXIMUM STEPSIZE WHICH MEETS STABILITY CRITERION OF THE DISPERSION TERM
 =  20.29    (WHEN MIN. R.F.=1)  AT K=   1, I=   1, J=  31
     1 CALLS TO GCG PACKAGE FOR TRANSPORT TIME STEP   2 IN FLOW TIME STEP 581 STRESS PERIOD   1
     6 TOTAL ITERATIONS
 
 SOLVING FOR HEAD 
 FLOW MODEL IS TRANSIENT
 FLOW MODEL CONTAINS CONSTANT-HEAD CELLS


 MAXIMUM STEPSIZE DURING WHICH ANY PARTICLE CANNOT MOVE MORE THAN ONE CELL
 =  5.279    (WHEN MIN. R.F.=1)  AT K=   5, I=   1, J=  47

 MAXIMUM STEPSIZE WHICH MEETS STABILITY CRITERION OF THE ADVECTION TERM
 (FOR PURE FINITE-DIFFERENCE OPTION, MIXELM=0) 
 =  3.790    (WHEN MIN. R.F.=1)  AT K=   2, I=   1, J=  41


 TOTAL NUMBER OF POINT SOURCES/SINKS PRESENT IN THE FLOW MODEL =    62

 MAXIMUM STEPSIZE WHICH MEETS STABILITY CRITERION OF THE SINK & SOURCE TERM
 =  181.9    (WHEN MIN. R.F.=1)  AT K=   2, I=   1, J= 120

 MAXIMUM STEPSIZE WHICH MEETS STABILITY CRITERION OF THE DISPERSION TERM
 =  20.29    (WHEN MIN. R.F.=1)  AT K=   1, I=   1, J=  31
     1 CALLS TO GCG PACKAGE FOR TRANSPORT TIME STEP   3 IN FLOW TIME STEP 581 STRESS PERIOD   1
     6 TOTAL ITERATIONS
 
 SOLVING FOR HEAD 
 FLOW MODEL IS TRANSIENT
 FLOW MODEL CONTAINS CONSTANT-HEAD CELLS


 MAXIMUM STEPSIZE DURING WHICH ANY PARTICLE CANNOT MOVE MORE THAN ONE CELL
 =  5.355    (WHEN MIN. R.F.=1)  AT K=   5, I=   1, J=  47

 MAXIMUM STEPSIZE WHICH MEETS STABILITY CRITERION OF THE ADVECTION TERM
 (FOR PURE FINITE-DIFFERENCE OPTION, MIXELM=0) 
 =  3.856    (WHEN MIN. R.F.=1)  AT K=   2, I=   1, J=  77


 TOTAL NUMBER OF POINT SOURCES/SINKS PRESENT IN THE FLOW MODEL =    62

 MAXIMUM STEPSIZE WHICH MEETS STABILITY CRITERION OF THE SINK & SOURCE TERM
 =  188.8    (WHEN MIN. R.F.=1)  AT K=   2, I=   1, J= 120

 MAXIMUM STEPSIZE WHICH MEETS STABILITY CRITERION OF THE DISPERSION TERM
 =  20.29    (WHEN MIN. R.F.=1)  AT K=   1, I=   1, J=  31
     1 CALLS TO GCG PACKAGE FOR TRANSPORT TIME STEP   4 IN FLOW TIME STEP 581 STRESS PERIOD   1
     5 TOTAL ITERATIONS
  MAXIMUM CONCENTRATION CHANGES FOR EACH ITERATION:
  MAX. CHANGE LAYER,ROW,COL MAX. CHANGE LAYER,ROW,COL MAX. CHANGE LAYER,ROW,COL MAX. CHANGE LAYER,ROW,COL MAX. CHANGE LAYER,ROW,COL
 ------------------------------------------------------------------------------------------------------------------------------------
   0.1295E-01 (  2,  1, 78)  0.2430E-03 (  2,  1, 75)  0.6551E-05 (  3,  1, 42)  0.1510E-06 (  3,  1, 79)  0.3551E-08 (  4,  1, 78)


                                          ================================================
                                                         FROM TIME =   5810.0     TO    5820.0    

 
 SOLVING FOR HEAD 
 FLOW MODEL IS TRANSIENT
 FLOW MODEL CONTAINS CONSTANT-HEAD CELLS


 MAXIMUM STEPSIZE DURING WHICH ANY PARTICLE CANNOT MOVE MORE THAN ONE CELL
 =  5.399    (WHEN MIN. R.F.=1)  AT K=   5, I=   1, J=  47

 MAXIMUM STEPSIZE WHICH MEETS STABILITY CRITERION OF THE ADVECTION TERM
 (FOR PURE FINITE-DIFFERENCE OPTION, MIXELM=0) 
 =  3.892    (WHEN MIN. R.F.=1)  AT K=   2, I=   1, J=  77


 TOTAL NUMBER OF POINT SOURCES/SINKS PRESENT IN THE FLOW MODEL =    62

 MAXIMUM STEPSIZE WHICH MEETS STABILITY CRITERION OF THE SINK & SOURCE TERM
 =  193.6    (WHEN MIN. R.F.=1)  AT K=   2, I=   1, J= 120

 MAXIMUM STEPSIZE WHICH MEETS STABILITY CRITERION OF THE DISPERSION TERM
 =  20.29    (WHEN MIN. R.F.=1)  AT K=   1, I=   1, J=  31


     1 CALLS TO GCG PACKAGE FOR TRANSPORT TIME STEP   1 IN FLOW TIME STEP 582 STRESS PERIOD   1
     6 TOTAL ITERATIONS

 NO OUTPUT CONTROL FOR STRESS PERIOD    1   TIME STEP 582
 
 SOLVING FOR HEAD 
 FLOW MODEL IS TRANSIENT
 FLOW MODEL CONTAINS CONSTANT-HEAD CELLS


 MAXIMUM STEPSIZE DURING WHICH ANY PARTICLE CANNOT MOVE MORE THAN ONE CELL
 =  5.537    (WHEN MIN. R.F.=1)  AT K=   5, I=   1, J=  47

 MAXIMUM STEPSIZE WHICH MEETS STABILITY CRITERION OF THE ADVECTION TERM
 (FOR PURE FINITE-DIFFERENCE OPTION, MIXELM=0) 
 =  3.859    (WHEN MIN. R.F.=1)  AT K=   2, I=   1, J=  42


 TOTAL NUMBER OF POINT SOURCES/SINKS PRESENT IN THE FLOW MODEL =    62

 MAXIMUM STEPSIZE WHICH MEETS STABILITY CRITERION OF THE SINK & SOURCE TERM
 =  187.4    (WHEN MIN. R.F.=1)  AT K=   2, I=   1, J= 120

 MAXIMUM STEPSIZE WHICH MEETS STABILITY CRITERION OF THE DISPERSION TERM
 =  20.29    (WHEN MIN. R.F.=1)  AT K=   1, I=   1, J=  31
     1 CALLS TO GCG PACKAGE FOR TRANSPORT TIME STEP   2 IN FLOW TIME STEP 582 STRESS PERIOD   1
     6 TOTAL ITERATIONS
 
 SOLVING FOR HEAD 
 FLOW MODEL IS TRANSIENT
 FLOW MODEL CONTAINS CONSTANT-HEAD CELLS


 MAXIMUM STEPSIZE DURING WHICH ANY PARTICLE CANNOT MOVE MORE THAN ONE CELL
 =  5.656    (WHEN MIN. R.F.=1)  AT K=   6, I=   1, J=  47

 MAXIMUM STEPSIZE WHICH MEETS STABILITY CRITERION OF THE ADVECTION TERM
 (FOR PURE FINITE-DIFFERENCE OPTION, MIXELM=0) 
 =  3.722    (WHEN MIN. R.F.=1)  AT K=   2, I=   1, J=  42


 TOTAL NUMBER OF POINT SOURCES/SINKS PRESENT IN THE FLOW MODEL =    62

 MAXIMUM STEPSIZE WHICH MEETS STABILITY CRITERION OF THE SINK & SOURCE TERM
 =  187.4    (WHEN MIN. R.F.=1)  AT K=   2, I=   1, J= 120

 MAXIMUM STEPSIZE WHICH MEETS STABILITY CRITERION OF THE DISPERSION TERM
 =  20.29    (WHEN MIN. R.F.=1)  AT K=   1, I=   1, J=  31
     1 CALLS TO GCG PACKAGE FOR TRANSPORT TIME STEP   3 IN FLOW TIME STEP 582 STRESS PERIOD   1
     6 TOTAL ITERATIONS
 
 SOLVING FOR HEAD 
 FLOW MODEL IS TRANSIENT
 FLOW MODEL CONTAINS CONSTANT-HEAD CELLS


 MAXIMUM STEPSIZE DURING WHICH ANY PARTICLE CANNOT MOVE MORE THAN ONE CELL
 =  5.784    (WHEN MIN. R.F.=1)  AT K=   6, I=   1, J=  47

 MAXIMUM STEPSIZE WHICH MEETS STABILITY CRITERION OF THE ADVECTION TERM
 (FOR PURE FINITE-DIFFERENCE OPTION, MIXELM=0) 
 =  3.735    (WHEN MIN. R.F.=1)  AT K=   2, I=   1, J=  42


 TOTAL NUMBER OF POINT SOURCES/SINKS PRESENT IN THE FLOW MODEL =    62

 MAXIMUM STEPSIZE WHICH MEETS STABILITY CRITERION OF THE SINK & SOURCE TERM
 =  192.8    (WHEN MIN. R.F.=1)  AT K=   2, I=   1, J= 120

 MAXIMUM STEPSIZE WHICH MEETS STABILITY CRITERION OF THE DISPERSION TERM
 =  20.29    (WHEN MIN. R.F.=1)  AT K=   1, I=   1, J=  31
     1 CALLS TO GCG PACKAGE FOR TRANSPORT TIME STEP   4 IN FLOW TIME STEP 582 STRESS PERIOD   1
     5 TOTAL ITERATIONS
  MAXIMUM CONCENTRATION CHANGES FOR EACH ITERATION:
  MAX. CHANGE LAYER,ROW,COL MAX. CHANGE LAYER,ROW,COL MAX. CHANGE LAYER,ROW,COL MAX. CHANGE LAYER,ROW,COL MAX. CHANGE LAYER,ROW,COL
 ------------------------------------------------------------------------------------------------------------------------------------
   0.1373E-01 (  2,  1, 90)  0.3281E-03 (  2,  1, 76)  0.8058E-05 (  3,  1, 43)  0.3770E-06 (  3,  1, 45)  0.8413E-08 (  4,  1, 45)


                                          ================================================
                                                         FROM TIME =   5820.0     TO    5830.0    

 
 SOLVING FOR HEAD 
 FLOW MODEL IS TRANSIENT
 FLOW MODEL CONTAINS CONSTANT-HEAD CELLS


 MAXIMUM STEPSIZE DURING WHICH ANY PARTICLE CANNOT MOVE MORE THAN ONE CELL
 =  5.855    (WHEN MIN. R.F.=1)  AT K=   6, I=   1, J=  47

 MAXIMUM STEPSIZE WHICH MEETS STABILITY CRITERION OF THE ADVECTION TERM
 (FOR PURE FINITE-DIFFERENCE OPTION, MIXELM=0) 
 =  3.780    (WHEN MIN. R.F.=1)  AT K=   2, I=   1, J=  42


 TOTAL NUMBER OF POINT SOURCES/SINKS PRESENT IN THE FLOW MODEL =    62

 MAXIMUM STEPSIZE WHICH MEETS STABILITY CRITERION OF THE SINK & SOURCE TERM
 =  200.8    (WHEN MIN. R.F.=1)  AT K=   2, I=   1, J= 120

 MAXIMUM STEPSIZE WHICH MEETS STABILITY CRITERION OF THE DISPERSION TERM
 =  20.29    (WHEN MIN. R.F.=1)  AT K=   1, I=   1, J=  31


     1 CALLS TO GCG PACKAGE FOR TRANSPORT TIME STEP   1 IN FLOW TIME STEP 583 STRESS PERIOD   1
     6 TOTAL ITERATIONS

 NO OUTPUT CONTROL FOR STRESS PERIOD    1   TIME STEP 583
 
 SOLVING FOR HEAD 
 FLOW MODEL IS TRANSIENT
 FLOW MODEL CONTAINS CONSTANT-HEAD CELLS


 MAXIMUM STEPSIZE DURING WHICH ANY PARTICLE CANNOT MOVE MORE THAN ONE CELL
 =  5.971    (WHEN MIN. R.F.=1)  AT K=   7, I=   1, J=  47

 MAXIMUM STEPSIZE WHICH MEETS STABILITY CRITERION OF THE ADVECTION TERM
 (FOR PURE FINITE-DIFFERENCE OPTION, MIXELM=0) 
 =  3.991    (WHEN MIN. R.F.=1)  AT K=   2, I=   1, J=  42


 TOTAL NUMBER OF POINT SOURCES/SINKS PRESENT IN THE FLOW MODEL =    62

 MAXIMUM STEPSIZE WHICH MEETS STABILITY CRITERION OF THE SINK & SOURCE TERM
 =  198.5    (WHEN MIN. R.F.=1)  AT K=   2, I=   1, J= 120

 MAXIMUM STEPSIZE WHICH MEETS STABILITY CRITERION OF THE DISPERSION TERM
 =  20.29    (WHEN MIN. R.F.=1)  AT K=   1, I=   1, J=  31
     1 CALLS TO GCG PACKAGE FOR TRANSPORT TIME STEP   2 IN FLOW TIME STEP 583 STRESS PERIOD   1
     6 TOTAL ITERATIONS
 
 SOLVING FOR HEAD 
 FLOW MODEL IS TRANSIENT
 FLOW MODEL CONTAINS CONSTANT-HEAD CELLS


 MAXIMUM STEPSIZE DURING WHICH ANY PARTICLE CANNOT MOVE MORE THAN ONE CELL
 =  6.094    (WHEN MIN. R.F.=1)  AT K=   7, I=   1, J=  47

 MAXIMUM STEPSIZE WHICH MEETS STABILITY CRITERION OF THE ADVECTION TERM
 (FOR PURE FINITE-DIFFERENCE OPTION, MIXELM=0) 
 =  4.027    (WHEN MIN. R.F.=1)  AT K=   2, I=   1, J=  43


 TOTAL NUMBER OF POINT SOURCES/SINKS PRESENT IN THE FLOW MODEL =    62

 MAXIMUM STEPSIZE WHICH MEETS STABILITY CRITERION OF THE SINK & SOURCE TERM
 =  201.7    (WHEN MIN. R.F.=1)  AT K=   2, I=   1, J= 120

 MAXIMUM STEPSIZE WHICH MEETS STABILITY CRITERION OF THE DISPERSION TERM
 =  20.29    (WHEN MIN. R.F.=1)  AT K=   1, I=   1, J=  31
     1 CALLS TO GCG PACKAGE FOR TRANSPORT TIME STEP   3 IN FLOW TIME STEP 583 STRESS PERIOD   1
     6 TOTAL ITERATIONS
 
 SOLVING FOR HEAD 
 FLOW MODEL IS TRANSIENT
 FLOW MODEL CONTAINS CONSTANT-HEAD CELLS


 MAXIMUM STEPSIZE DURING WHICH ANY PARTICLE CANNOT MOVE MORE THAN ONE CELL
 =  6.131    (WHEN MIN. R.F.=1)  AT K=  28, I=   1, J=  52

 MAXIMUM STEPSIZE WHICH MEETS STABILITY CRITERION OF THE ADVECTION TERM
 (FOR PURE FINITE-DIFFERENCE OPTION, MIXELM=0) 
 =  3.821    (WHEN MIN. R.F.=1)  AT K=   2, I=   1, J=  43


 TOTAL NUMBER OF POINT SOURCES/SINKS PRESENT IN THE FLOW MODEL =    62

 MAXIMUM STEPSIZE WHICH MEETS STABILITY CRITERION OF THE SINK & SOURCE TERM
 =  205.5    (WHEN MIN. R.F.=1)  AT K=   2, I=   1, J= 120

 MAXIMUM STEPSIZE WHICH MEETS STABILITY CRITERION OF THE DISPERSION TERM
 =  20.29    (WHEN MIN. R.F.=1)  AT K=   1, I=   1, J=  31
     1 CALLS TO GCG PACKAGE FOR TRANSPORT TIME STEP   4 IN FLOW TIME STEP 583 STRESS PERIOD   1
     5 TOTAL ITERATIONS
  MAXIMUM CONCENTRATION CHANGES FOR EACH ITERATION:
  MAX. CHANGE LAYER,ROW,COL MAX. CHANGE LAYER,ROW,COL MAX. CHANGE LAYER,ROW,COL MAX. CHANGE LAYER,ROW,COL MAX. CHANGE LAYER,ROW,COL
 ------------------------------------------------------------------------------------------------------------------------------------
   0.1647E-01 (  2,  1, 77)  0.3244E-03 (  2,  1, 77)  0.1110E-04 (  2,  1, 78)  0.3879E-06 (  3,  1, 78)  0.7748E-08 (  3,  1, 79)


                                          ================================================
                                                         FROM TIME =   5830.0     TO    5840.0    

 
 SOLVING FOR HEAD 
 FLOW MODEL IS TRANSIENT
 FLOW MODEL CONTAINS CONSTANT-HEAD CELLS


 MAXIMUM STEPSIZE DURING WHICH ANY PARTICLE CANNOT MOVE MORE THAN ONE CELL
 =  6.132    (WHEN MIN. R.F.=1)  AT K=  28, I=   1, J=  52

 MAXIMUM STEPSIZE WHICH MEETS STABILITY CRITERION OF THE ADVECTION TERM
 (FOR PURE FINITE-DIFFERENCE OPTION, MIXELM=0) 
 =  3.787    (WHEN MIN. R.F.=1)  AT K=   2, I=   1, J=  43


 TOTAL NUMBER OF POINT SOURCES/SINKS PRESENT IN THE FLOW MODEL =    62

 MAXIMUM STEPSIZE WHICH MEETS STABILITY CRITERION OF THE SINK & SOURCE TERM
 =  209.9    (WHEN MIN. R.F.=1)  AT K=   2, I=   1, J= 120

 MAXIMUM STEPSIZE WHICH MEETS STABILITY CRITERION OF THE DISPERSION TERM
 =  20.29    (WHEN MIN. R.F.=1)  AT K=   1, I=   1, J=  31


     1 CALLS TO GCG PACKAGE FOR TRANSPORT TIME STEP   1 IN FLOW TIME STEP 584 STRESS PERIOD   1
     6 TOTAL ITERATIONS

 NO OUTPUT CONTROL FOR STRESS PERIOD    1   TIME STEP 584
 
 SOLVING FOR HEAD 
 FLOW MODEL IS TRANSIENT
 FLOW MODEL CONTAINS CONSTANT-HEAD CELLS


 MAXIMUM STEPSIZE DURING WHICH ANY PARTICLE CANNOT MOVE MORE THAN ONE CELL
 =  6.126    (WHEN MIN. R.F.=1)  AT K=  28, I=   1, J=  52

 MAXIMUM STEPSIZE WHICH MEETS STABILITY CRITERION OF THE ADVECTION TERM
 (FOR PURE FINITE-DIFFERENCE OPTION, MIXELM=0) 
 =  3.799    (WHEN MIN. R.F.=1)  AT K=   2, I=   1, J=  43


 TOTAL NUMBER OF POINT SOURCES/SINKS PRESENT IN THE FLOW MODEL =    62

 MAXIMUM STEPSIZE WHICH MEETS STABILITY CRITERION OF THE SINK & SOURCE TERM
 =  207.8    (WHEN MIN. R.F.=1)  AT K=   2, I=   1, J= 120

 MAXIMUM STEPSIZE WHICH MEETS STABILITY CRITERION OF THE DISPERSION TERM
 =  20.29    (WHEN MIN. R.F.=1)  AT K=   1, I=   1, J=  31
     1 CALLS TO GCG PACKAGE FOR TRANSPORT TIME STEP   2 IN FLOW TIME STEP 584 STRESS PERIOD   1
     6 TOTAL ITERATIONS
 
 SOLVING FOR HEAD 
 FLOW MODEL IS TRANSIENT
 FLOW MODEL CONTAINS CONSTANT-HEAD CELLS


 MAXIMUM STEPSIZE DURING WHICH ANY PARTICLE CANNOT MOVE MORE THAN ONE CELL
 =  6.119    (WHEN MIN. R.F.=1)  AT K=  28, I=   1, J=  52

 MAXIMUM STEPSIZE WHICH MEETS STABILITY CRITERION OF THE ADVECTION TERM
 (FOR PURE FINITE-DIFFERENCE OPTION, MIXELM=0) 
 =  3.919    (WHEN MIN. R.F.=1)  AT K=   2, I=   1, J=  43


 TOTAL NUMBER OF POINT SOURCES/SINKS PRESENT IN THE FLOW MODEL =    62

 MAXIMUM STEPSIZE WHICH MEETS STABILITY CRITERION OF THE SINK & SOURCE TERM
 =  213.6    (WHEN MIN. R.F.=1)  AT K=   2, I=   1, J= 120

 MAXIMUM STEPSIZE WHICH MEETS STABILITY CRITERION OF THE DISPERSION TERM
 =  20.29    (WHEN MIN. R.F.=1)  AT K=   1, I=   1, J=  31
     1 CALLS TO GCG PACKAGE FOR TRANSPORT TIME STEP   3 IN FLOW TIME STEP 584 STRESS PERIOD   1
     6 TOTAL ITERATIONS
 
 SOLVING FOR HEAD 
 FLOW MODEL IS TRANSIENT
 FLOW MODEL CONTAINS CONSTANT-HEAD CELLS


 MAXIMUM STEPSIZE DURING WHICH ANY PARTICLE CANNOT MOVE MORE THAN ONE CELL
 =  6.113    (WHEN MIN. R.F.=1)  AT K=  28, I=   1, J=  52

 MAXIMUM STEPSIZE WHICH MEETS STABILITY CRITERION OF THE ADVECTION TERM
 (FOR PURE FINITE-DIFFERENCE OPTION, MIXELM=0) 
 =  4.223    (WHEN MIN. R.F.=1)  AT K=   2, I=   1, J=  43


 TOTAL NUMBER OF POINT SOURCES/SINKS PRESENT IN THE FLOW MODEL =    62

 MAXIMUM STEPSIZE WHICH MEETS STABILITY CRITERION OF THE SINK & SOURCE TERM
 =  218.9    (WHEN MIN. R.F.=1)  AT K=   2, I=   1, J= 120

 MAXIMUM STEPSIZE WHICH MEETS STABILITY CRITERION OF THE DISPERSION TERM
 =  20.29    (WHEN MIN. R.F.=1)  AT K=   1, I=   1, J=  31
     1 CALLS TO GCG PACKAGE FOR TRANSPORT TIME STEP   4 IN FLOW TIME STEP 584 STRESS PERIOD   1
     5 TOTAL ITERATIONS
  MAXIMUM CONCENTRATION CHANGES FOR EACH ITERATION:
  MAX. CHANGE LAYER,ROW,COL MAX. CHANGE LAYER,ROW,COL MAX. CHANGE LAYER,ROW,COL MAX. CHANGE LAYER,ROW,COL MAX. CHANGE LAYER,ROW,COL
 ------------------------------------------------------------------------------------------------------------------------------------
   0.1801E-01 (  2,  1, 83)  0.4000E-03 (  2,  1, 83)  0.1093E-04 (  2,  1, 84)  0.3657E-06 (  3,  1, 84)  0.1066E-07 (  3,  1, 33)


                                          ================================================
                                                         FROM TIME =   5840.0     TO    5850.0    

 
 SOLVING FOR HEAD 
 FLOW MODEL IS TRANSIENT
 FLOW MODEL CONTAINS CONSTANT-HEAD CELLS


 MAXIMUM STEPSIZE DURING WHICH ANY PARTICLE CANNOT MOVE MORE THAN ONE CELL
 =  6.044    (WHEN MIN. R.F.=1)  AT K=   4, I=   1, J=  74

 MAXIMUM STEPSIZE WHICH MEETS STABILITY CRITERION OF THE ADVECTION TERM
 (FOR PURE FINITE-DIFFERENCE OPTION, MIXELM=0) 
 =  4.305    (WHEN MIN. R.F.=1)  AT K=   2, I=   1, J=  44


 TOTAL NUMBER OF POINT SOURCES/SINKS PRESENT IN THE FLOW MODEL =    62

 MAXIMUM STEPSIZE WHICH MEETS STABILITY CRITERION OF THE SINK & SOURCE TERM
 =  220.8    (WHEN MIN. R.F.=1)  AT K=   2, I=   1, J= 120

 MAXIMUM STEPSIZE WHICH MEETS STABILITY CRITERION OF THE DISPERSION TERM
 =  20.29    (WHEN MIN. R.F.=1)  AT K=   1, I=   1, J=  31


     1 CALLS TO GCG PACKAGE FOR TRANSPORT TIME STEP   1 IN FLOW TIME STEP 585 STRESS PERIOD   1
     6 TOTAL ITERATIONS

 NO OUTPUT CONTROL FOR STRESS PERIOD    1   TIME STEP 585
 
 SOLVING FOR HEAD 
 FLOW MODEL IS TRANSIENT
 FLOW MODEL CONTAINS CONSTANT-HEAD CELLS


 MAXIMUM STEPSIZE DURING WHICH ANY PARTICLE CANNOT MOVE MORE THAN ONE CELL
 =  5.694    (WHEN MIN. R.F.=1)  AT K=   4, I=   1, J=  74

 MAXIMUM STEPSIZE WHICH MEETS STABILITY CRITERION OF THE ADVECTION TERM
 (FOR PURE FINITE-DIFFERENCE OPTION, MIXELM=0) 
 =  4.034    (WHEN MIN. R.F.=1)  AT K=   2, I=   1, J=  44


 TOTAL NUMBER OF POINT SOURCES/SINKS PRESENT IN THE FLOW MODEL =    62

 MAXIMUM STEPSIZE WHICH MEETS STABILITY CRITERION OF THE SINK & SOURCE TERM
 =  215.8    (WHEN MIN. R.F.=1)  AT K=   2, I=   1, J= 120

 MAXIMUM STEPSIZE WHICH MEETS STABILITY CRITERION OF THE DISPERSION TERM
 =  20.29    (WHEN MIN. R.F.=1)  AT K=   1, I=   1, J=  31
     1 CALLS TO GCG PACKAGE FOR TRANSPORT TIME STEP   2 IN FLOW TIME STEP 585 STRESS PERIOD   1
     6 TOTAL ITERATIONS
 
 SOLVING FOR HEAD 
 FLOW MODEL IS TRANSIENT
 FLOW MODEL CONTAINS CONSTANT-HEAD CELLS


 MAXIMUM STEPSIZE DURING WHICH ANY PARTICLE CANNOT MOVE MORE THAN ONE CELL
 =  5.409    (WHEN MIN. R.F.=1)  AT K=   4, I=   1, J=  74

 MAXIMUM STEPSIZE WHICH MEETS STABILITY CRITERION OF THE ADVECTION TERM
 (FOR PURE FINITE-DIFFERENCE OPTION, MIXELM=0) 
 =  3.950    (WHEN MIN. R.F.=1)  AT K=   2, I=   1, J=  44


 TOTAL NUMBER OF POINT SOURCES/SINKS PRESENT IN THE FLOW MODEL =    62

 MAXIMUM STEPSIZE WHICH MEETS STABILITY CRITERION OF THE SINK & SOURCE TERM
 =  230.5    (WHEN MIN. R.F.=1)  AT K=   2, I=   1, J= 120

 MAXIMUM STEPSIZE WHICH MEETS STABILITY CRITERION OF THE DISPERSION TERM
 =  20.29    (WHEN MIN. R.F.=1)  AT K=   1, I=   1, J=  31
     1 CALLS TO GCG PACKAGE FOR TRANSPORT TIME STEP   3 IN FLOW TIME STEP 585 STRESS PERIOD   1
     6 TOTAL ITERATIONS
 
 SOLVING FOR HEAD 
 FLOW MODEL IS TRANSIENT
 FLOW MODEL CONTAINS CONSTANT-HEAD CELLS


 MAXIMUM STEPSIZE DURING WHICH ANY PARTICLE CANNOT MOVE MORE THAN ONE CELL
 =  5.212    (WHEN MIN. R.F.=1)  AT K=   4, I=   1, J=  74

 MAXIMUM STEPSIZE WHICH MEETS STABILITY CRITERION OF THE ADVECTION TERM
 (FOR PURE FINITE-DIFFERENCE OPTION, MIXELM=0) 
 =  3.899    (WHEN MIN. R.F.=1)  AT K=   2, I=   1, J=  81


 TOTAL NUMBER OF POINT SOURCES/SINKS PRESENT IN THE FLOW MODEL =    62

 MAXIMUM STEPSIZE WHICH MEETS STABILITY CRITERION OF THE SINK & SOURCE TERM
 =  247.9    (WHEN MIN. R.F.=1)  AT K=   2, I=   1, J= 120

 MAXIMUM STEPSIZE WHICH MEETS STABILITY CRITERION OF THE DISPERSION TERM
 =  20.29    (WHEN MIN. R.F.=1)  AT K=   1, I=   1, J=  31
     1 CALLS TO GCG PACKAGE FOR TRANSPORT TIME STEP   4 IN FLOW TIME STEP 585 STRESS PERIOD   1
     4 TOTAL ITERATIONS
  MAXIMUM CONCENTRATION CHANGES FOR EACH ITERATION:
  MAX. CHANGE LAYER,ROW,COL MAX. CHANGE LAYER,ROW,COL MAX. CHANGE LAYER,ROW,COL MAX. CHANGE LAYER,ROW,COL MAX. CHANGE LAYER,ROW,COL
 ------------------------------------------------------------------------------------------------------------------------------------
   0.6904E-02 (  2,  1, 82)  0.7511E-04 (  2,  1, 82)  0.8940E-06 (  2,  1, 83)  0.1087E-07 (  3,  1, 83)


                                          ================================================
                                                         FROM TIME =   5850.0     TO    5860.0    

 
 SOLVING FOR HEAD 
 FLOW MODEL IS TRANSIENT
 FLOW MODEL CONTAINS CONSTANT-HEAD CELLS


 MAXIMUM STEPSIZE DURING WHICH ANY PARTICLE CANNOT MOVE MORE THAN ONE CELL
 =  5.181    (WHEN MIN. R.F.=1)  AT K=   4, I=   1, J=  74

 MAXIMUM STEPSIZE WHICH MEETS STABILITY CRITERION OF THE ADVECTION TERM
 (FOR PURE FINITE-DIFFERENCE OPTION, MIXELM=0) 
 =  3.912    (WHEN MIN. R.F.=1)  AT K=   2, I=   1, J=  81


 TOTAL NUMBER OF POINT SOURCES/SINKS PRESENT IN THE FLOW MODEL =    62

 MAXIMUM STEPSIZE WHICH MEETS STABILITY CRITERION OF THE SINK & SOURCE TERM
 =  254.8    (WHEN MIN. R.F.=1)  AT K=   2, I=   1, J= 120

 MAXIMUM STEPSIZE WHICH MEETS STABILITY CRITERION OF THE DISPERSION TERM
 =  20.29    (WHEN MIN. R.F.=1)  AT K=   1, I=   1, J=  31


     1 CALLS TO GCG PACKAGE FOR TRANSPORT TIME STEP   1 IN FLOW TIME STEP 586 STRESS PERIOD   1
     6 TOTAL ITERATIONS

 NO OUTPUT CONTROL FOR STRESS PERIOD    1   TIME STEP 586
 
 SOLVING FOR HEAD 
 FLOW MODEL IS TRANSIENT
 FLOW MODEL CONTAINS CONSTANT-HEAD CELLS


 MAXIMUM STEPSIZE DURING WHICH ANY PARTICLE CANNOT MOVE MORE THAN ONE CELL
 =  5.060    (WHEN MIN. R.F.=1)  AT K=   4, I=   1, J=  74

 MAXIMUM STEPSIZE WHICH MEETS STABILITY CRITERION OF THE ADVECTION TERM
 (FOR PURE FINITE-DIFFERENCE OPTION, MIXELM=0) 
 =  4.095    (WHEN MIN. R.F.=1)  AT K=   2, I=   1, J=  81


 TOTAL NUMBER OF POINT SOURCES/SINKS PRESENT IN THE FLOW MODEL =    62

 MAXIMUM STEPSIZE WHICH MEETS STABILITY CRITERION OF THE SINK & SOURCE TERM
 =  249.3    (WHEN MIN. R.F.=1)  AT K=   2, I=   1, J= 120

 MAXIMUM STEPSIZE WHICH MEETS STABILITY CRITERION OF THE DISPERSION TERM
 =  20.29    (WHEN MIN. R.F.=1)  AT K=   1, I=   1, J=  31
     1 CALLS TO GCG PACKAGE FOR TRANSPORT TIME STEP   2 IN FLOW TIME STEP 586 STRESS PERIOD   1
     6 TOTAL ITERATIONS
 
 SOLVING FOR HEAD 
 FLOW MODEL IS TRANSIENT
 FLOW MODEL CONTAINS CONSTANT-HEAD CELLS


 MAXIMUM STEPSIZE DURING WHICH ANY PARTICLE CANNOT MOVE MORE THAN ONE CELL
 =  4.989    (WHEN MIN. R.F.=1)  AT K=   4, I=   1, J=  74

 MAXIMUM STEPSIZE WHICH MEETS STABILITY CRITERION OF THE ADVECTION TERM
 (FOR PURE FINITE-DIFFERENCE OPTION, MIXELM=0) 
 =  3.864    (WHEN MIN. R.F.=1)  AT K=   2, I=   1, J=  80


 TOTAL NUMBER OF POINT SOURCES/SINKS PRESENT IN THE FLOW MODEL =    62

 MAXIMUM STEPSIZE WHICH MEETS STABILITY CRITERION OF THE SINK & SOURCE TERM
 =  246.8    (WHEN MIN. R.F.=1)  AT K=   2, I=   1, J= 120

 MAXIMUM STEPSIZE WHICH MEETS STABILITY CRITERION OF THE DISPERSION TERM
 =  20.29    (WHEN MIN. R.F.=1)  AT K=   1, I=   1, J=  31
     1 CALLS TO GCG PACKAGE FOR TRANSPORT TIME STEP   3 IN FLOW TIME STEP 586 STRESS PERIOD   1
     6 TOTAL ITERATIONS
 
 SOLVING FOR HEAD 
 FLOW MODEL IS TRANSIENT
 FLOW MODEL CONTAINS CONSTANT-HEAD CELLS


 MAXIMUM STEPSIZE DURING WHICH ANY PARTICLE CANNOT MOVE MORE THAN ONE CELL
 =  4.966    (WHEN MIN. R.F.=1)  AT K=   4, I=   1, J=  74

 MAXIMUM STEPSIZE WHICH MEETS STABILITY CRITERION OF THE ADVECTION TERM
 (FOR PURE FINITE-DIFFERENCE OPTION, MIXELM=0) 
 =  3.637    (WHEN MIN. R.F.=1)  AT K=   2, I=   1, J=  80


 TOTAL NUMBER OF POINT SOURCES/SINKS PRESENT IN THE FLOW MODEL =    62

 MAXIMUM STEPSIZE WHICH MEETS STABILITY CRITERION OF THE SINK & SOURCE TERM
 =  259.3    (WHEN MIN. R.F.=1)  AT K=   2, I=   1, J= 120

 MAXIMUM STEPSIZE WHICH MEETS STABILITY CRITERION OF THE DISPERSION TERM
 =  20.29    (WHEN MIN. R.F.=1)  AT K=   1, I=   1, J=  31
     1 CALLS TO GCG PACKAGE FOR TRANSPORT TIME STEP   4 IN FLOW TIME STEP 586 STRESS PERIOD   1
     5 TOTAL ITERATIONS
  MAXIMUM CONCENTRATION CHANGES FOR EACH ITERATION:
  MAX. CHANGE LAYER,ROW,COL MAX. CHANGE LAYER,ROW,COL MAX. CHANGE LAYER,ROW,COL MAX. CHANGE LAYER,ROW,COL MAX. CHANGE LAYER,ROW,COL
 ------------------------------------------------------------------------------------------------------------------------------------
   0.1136E-01 (  2,  1, 31)  0.2033E-03 (  2,  1, 81)  0.4957E-05 (  3,  1, 79)  0.1487E-06 (  3,  1, 77)  0.2961E-08 (  4,  1, 77)


                                          ================================================
                                                         FROM TIME =   5860.0     TO    5870.0    

 
 SOLVING FOR HEAD 
 FLOW MODEL IS TRANSIENT
 FLOW MODEL CONTAINS CONSTANT-HEAD CELLS


 MAXIMUM STEPSIZE DURING WHICH ANY PARTICLE CANNOT MOVE MORE THAN ONE CELL
 =  4.970    (WHEN MIN. R.F.=1)  AT K=   4, I=   1, J=  74

 MAXIMUM STEPSIZE WHICH MEETS STABILITY CRITERION OF THE ADVECTION TERM
 (FOR PURE FINITE-DIFFERENCE OPTION, MIXELM=0) 
 =  3.622    (WHEN MIN. R.F.=1)  AT K=   2, I=   1, J=  80


 TOTAL NUMBER OF POINT SOURCES/SINKS PRESENT IN THE FLOW MODEL =    62

 MAXIMUM STEPSIZE WHICH MEETS STABILITY CRITERION OF THE SINK & SOURCE TERM
 =  283.5    (WHEN MIN. R.F.=1)  AT K=   2, I=   1, J= 120

 MAXIMUM STEPSIZE WHICH MEETS STABILITY CRITERION OF THE DISPERSION TERM
 =  20.29    (WHEN MIN. R.F.=1)  AT K=   1, I=   1, J=  31


     1 CALLS TO GCG PACKAGE FOR TRANSPORT TIME STEP   1 IN FLOW TIME STEP 587 STRESS PERIOD   1
     6 TOTAL ITERATIONS

 NO OUTPUT CONTROL FOR STRESS PERIOD    1   TIME STEP 587
 
 SOLVING FOR HEAD 
 FLOW MODEL IS TRANSIENT
 FLOW MODEL CONTAINS CONSTANT-HEAD CELLS


 MAXIMUM STEPSIZE DURING WHICH ANY PARTICLE CANNOT MOVE MORE THAN ONE CELL
 =  5.010    (WHEN MIN. R.F.=1)  AT K=   4, I=   1, J=  74

 MAXIMUM STEPSIZE WHICH MEETS STABILITY CRITERION OF THE ADVECTION TERM
 (FOR PURE FINITE-DIFFERENCE OPTION, MIXELM=0) 
 =  3.657    (WHEN MIN. R.F.=1)  AT K=   2, I=   1, J=  80


 TOTAL NUMBER OF POINT SOURCES/SINKS PRESENT IN THE FLOW MODEL =    62

 MAXIMUM STEPSIZE WHICH MEETS STABILITY CRITERION OF THE SINK & SOURCE TERM
 =  282.5    (WHEN MIN. R.F.=1)  AT K=   2, I=   1, J= 120

 MAXIMUM STEPSIZE WHICH MEETS STABILITY CRITERION OF THE DISPERSION TERM
 =  20.29    (WHEN MIN. R.F.=1)  AT K=   1, I=   1, J=  31
     1 CALLS TO GCG PACKAGE FOR TRANSPORT TIME STEP   2 IN FLOW TIME STEP 587 STRESS PERIOD   1
     6 TOTAL ITERATIONS
 
 SOLVING FOR HEAD 
 FLOW MODEL IS TRANSIENT
 FLOW MODEL CONTAINS CONSTANT-HEAD CELLS


 MAXIMUM STEPSIZE DURING WHICH ANY PARTICLE CANNOT MOVE MORE THAN ONE CELL
 =  5.074    (WHEN MIN. R.F.=1)  AT K=   5, I=   1, J=  74

 MAXIMUM STEPSIZE WHICH MEETS STABILITY CRITERION OF THE ADVECTION TERM
 (FOR PURE FINITE-DIFFERENCE OPTION, MIXELM=0) 
 =  3.907    (WHEN MIN. R.F.=1)  AT K=   2, I=   1, J=  80


 TOTAL NUMBER OF POINT SOURCES/SINKS PRESENT IN THE FLOW MODEL =    62

 MAXIMUM STEPSIZE WHICH MEETS STABILITY CRITERION OF THE SINK & SOURCE TERM
 =  301.6    (WHEN MIN. R.F.=1)  AT K=   2, I=   1, J= 120

 MAXIMUM STEPSIZE WHICH MEETS STABILITY CRITERION OF THE DISPERSION TERM
 =  20.29    (WHEN MIN. R.F.=1)  AT K=   1, I=   1, J=  31
     1 CALLS TO GCG PACKAGE FOR TRANSPORT TIME STEP   3 IN FLOW TIME STEP 587 STRESS PERIOD   1
     6 TOTAL ITERATIONS
 
 SOLVING FOR HEAD 
 FLOW MODEL IS TRANSIENT
 FLOW MODEL CONTAINS CONSTANT-HEAD CELLS


 MAXIMUM STEPSIZE DURING WHICH ANY PARTICLE CANNOT MOVE MORE THAN ONE CELL
 =  5.128    (WHEN MIN. R.F.=1)  AT K=   5, I=   1, J=  74

 MAXIMUM STEPSIZE WHICH MEETS STABILITY CRITERION OF THE ADVECTION TERM
 (FOR PURE FINITE-DIFFERENCE OPTION, MIXELM=0) 
 =  3.781    (WHEN MIN. R.F.=1)  AT K=   2, I=   1, J=  79


 TOTAL NUMBER OF POINT SOURCES/SINKS PRESENT IN THE FLOW MODEL =    62

 MAXIMUM STEPSIZE WHICH MEETS STABILITY CRITERION OF THE SINK & SOURCE TERM
 =  316.1    (WHEN MIN. R.F.=1)  AT K=   2, I=   1, J= 120

 MAXIMUM STEPSIZE WHICH MEETS STABILITY CRITERION OF THE DISPERSION TERM
 =  20.29    (WHEN MIN. R.F.=1)  AT K=   1, I=   1, J=  31
     1 CALLS TO GCG PACKAGE FOR TRANSPORT TIME STEP   4 IN FLOW TIME STEP 587 STRESS PERIOD   1
     5 TOTAL ITERATIONS
  MAXIMUM CONCENTRATION CHANGES FOR EACH ITERATION:
  MAX. CHANGE LAYER,ROW,COL MAX. CHANGE LAYER,ROW,COL MAX. CHANGE LAYER,ROW,COL MAX. CHANGE LAYER,ROW,COL MAX. CHANGE LAYER,ROW,COL
 ------------------------------------------------------------------------------------------------------------------------------------
   0.2090E-01 (  2,  1, 81)  0.6471E-03 (  2,  1, 79)  0.2458E-04 (  3,  1, 79)  0.1098E-05 (  3,  1, 76)  0.3112E-07 (  4,  1, 76)


                                          ================================================
                                                         FROM TIME =   5870.0     TO    5880.0    

 
 SOLVING FOR HEAD 
 FLOW MODEL IS TRANSIENT
 FLOW MODEL CONTAINS CONSTANT-HEAD CELLS


 MAXIMUM STEPSIZE DURING WHICH ANY PARTICLE CANNOT MOVE MORE THAN ONE CELL
 =  5.184    (WHEN MIN. R.F.=1)  AT K=   5, I=   1, J=  74

 MAXIMUM STEPSIZE WHICH MEETS STABILITY CRITERION OF THE ADVECTION TERM
 (FOR PURE FINITE-DIFFERENCE OPTION, MIXELM=0) 
 =  3.658    (WHEN MIN. R.F.=1)  AT K=   2, I=   1, J=  79


 TOTAL NUMBER OF POINT SOURCES/SINKS PRESENT IN THE FLOW MODEL =    62

 MAXIMUM STEPSIZE WHICH MEETS STABILITY CRITERION OF THE SINK & SOURCE TERM
 =  327.3    (WHEN MIN. R.F.=1)  AT K=   2, I=   1, J= 120

 MAXIMUM STEPSIZE WHICH MEETS STABILITY CRITERION OF THE DISPERSION TERM
 =  20.29    (WHEN MIN. R.F.=1)  AT K=   1, I=   1, J=  31


     1 CALLS TO GCG PACKAGE FOR TRANSPORT TIME STEP   1 IN FLOW TIME STEP 588 STRESS PERIOD   1
     6 TOTAL ITERATIONS

 NO OUTPUT CONTROL FOR STRESS PERIOD    1   TIME STEP 588
 
 SOLVING FOR HEAD 
 FLOW MODEL IS TRANSIENT
 FLOW MODEL CONTAINS CONSTANT-HEAD CELLS


 MAXIMUM STEPSIZE DURING WHICH ANY PARTICLE CANNOT MOVE MORE THAN ONE CELL
 =  5.295    (WHEN MIN. R.F.=1)  AT K=   5, I=   1, J=  74

 MAXIMUM STEPSIZE WHICH MEETS STABILITY CRITERION OF THE ADVECTION TERM
 (FOR PURE FINITE-DIFFERENCE OPTION, MIXELM=0) 
 =  3.572    (WHEN MIN. R.F.=1)  AT K=   2, I=   1, J=  79


 TOTAL NUMBER OF POINT SOURCES/SINKS PRESENT IN THE FLOW MODEL =    62

 MAXIMUM STEPSIZE WHICH MEETS STABILITY CRITERION OF THE SINK & SOURCE TERM
 =  336.5    (WHEN MIN. R.F.=1)  AT K=   2, I=   1, J= 120

 MAXIMUM STEPSIZE WHICH MEETS STABILITY CRITERION OF THE DISPERSION TERM
 =  20.29    (WHEN MIN. R.F.=1)  AT K=   1, I=   1, J=  31
     1 CALLS TO GCG PACKAGE FOR TRANSPORT TIME STEP   2 IN FLOW TIME STEP 588 STRESS PERIOD   1
     6 TOTAL ITERATIONS
 
 SOLVING FOR HEAD 
 FLOW MODEL IS TRANSIENT
 FLOW MODEL CONTAINS CONSTANT-HEAD CELLS


 MAXIMUM STEPSIZE DURING WHICH ANY PARTICLE CANNOT MOVE MORE THAN ONE CELL
 =  5.424    (WHEN MIN. R.F.=1)  AT K=   6, I=   1, J=  74

 MAXIMUM STEPSIZE WHICH MEETS STABILITY CRITERION OF THE ADVECTION TERM
 (FOR PURE FINITE-DIFFERENCE OPTION, MIXELM=0) 
 =  3.618    (WHEN MIN. R.F.=1)  AT K=   2, I=   1, J=  79


 TOTAL NUMBER OF POINT SOURCES/SINKS PRESENT IN THE FLOW MODEL =    62

 MAXIMUM STEPSIZE WHICH MEETS STABILITY CRITERION OF THE SINK & SOURCE TERM
 =  365.9    (WHEN MIN. R.F.=1)  AT K=   2, I=   1, J= 120

 MAXIMUM STEPSIZE WHICH MEETS STABILITY CRITERION OF THE DISPERSION TERM
 =  20.29    (WHEN MIN. R.F.=1)  AT K=   1, I=   1, J=  31
     1 CALLS TO GCG PACKAGE FOR TRANSPORT TIME STEP   3 IN FLOW TIME STEP 588 STRESS PERIOD   1
     6 TOTAL ITERATIONS
 
 SOLVING FOR HEAD 
 FLOW MODEL IS TRANSIENT
 FLOW MODEL CONTAINS CONSTANT-HEAD CELLS


 MAXIMUM STEPSIZE DURING WHICH ANY PARTICLE CANNOT MOVE MORE THAN ONE CELL
 =  5.526    (WHEN MIN. R.F.=1)  AT K=   6, I=   1, J=  74

 MAXIMUM STEPSIZE WHICH MEETS STABILITY CRITERION OF THE ADVECTION TERM
 (FOR PURE FINITE-DIFFERENCE OPTION, MIXELM=0) 
 =  3.817    (WHEN MIN. R.F.=1)  AT K=   2, I=   1, J=  79


 TOTAL NUMBER OF POINT SOURCES/SINKS PRESENT IN THE FLOW MODEL =    62

 MAXIMUM STEPSIZE WHICH MEETS STABILITY CRITERION OF THE SINK & SOURCE TERM
 =  402.9    (WHEN MIN. R.F.=1)  AT K=   2, I=   1, J= 120

 MAXIMUM STEPSIZE WHICH MEETS STABILITY CRITERION OF THE DISPERSION TERM
 =  20.29    (WHEN MIN. R.F.=1)  AT K=   1, I=   1, J=  31
     1 CALLS TO GCG PACKAGE FOR TRANSPORT TIME STEP   4 IN FLOW TIME STEP 588 STRESS PERIOD   1
     5 TOTAL ITERATIONS
  MAXIMUM CONCENTRATION CHANGES FOR EACH ITERATION:
  MAX. CHANGE LAYER,ROW,COL MAX. CHANGE LAYER,ROW,COL MAX. CHANGE LAYER,ROW,COL MAX. CHANGE LAYER,ROW,COL MAX. CHANGE LAYER,ROW,COL
 ------------------------------------------------------------------------------------------------------------------------------------
   0.2131E-01 (  2,  1, 80)  0.5885E-03 (  2,  1, 78)  0.2483E-04 (  3,  1, 78)  0.1036E-05 (  3,  1, 76)  0.2764E-07 (  4,  1, 79)


                                          ================================================
                                                         FROM TIME =   5880.0     TO    5890.0    

 
 SOLVING FOR HEAD 
 FLOW MODEL IS TRANSIENT
 FLOW MODEL CONTAINS CONSTANT-HEAD CELLS


 MAXIMUM STEPSIZE DURING WHICH ANY PARTICLE CANNOT MOVE MORE THAN ONE CELL
 =  5.607    (WHEN MIN. R.F.=1)  AT K=   6, I=   1, J=  74

 MAXIMUM STEPSIZE WHICH MEETS STABILITY CRITERION OF THE ADVECTION TERM
 (FOR PURE FINITE-DIFFERENCE OPTION, MIXELM=0) 
 =  4.056    (WHEN MIN. R.F.=1)  AT K=   2, I=   1, J=  79


 TOTAL NUMBER OF POINT SOURCES/SINKS PRESENT IN THE FLOW MODEL =    62

 MAXIMUM STEPSIZE WHICH MEETS STABILITY CRITERION OF THE SINK & SOURCE TERM
 =  438.1    (WHEN MIN. R.F.=1)  AT K=   2, I=   1, J= 120

 MAXIMUM STEPSIZE WHICH MEETS STABILITY CRITERION OF THE DISPERSION TERM
 =  20.29    (WHEN MIN. R.F.=1)  AT K=   1, I=   1, J=  31


     1 CALLS TO GCG PACKAGE FOR TRANSPORT TIME STEP   1 IN FLOW TIME STEP 589 STRESS PERIOD   1
     6 TOTAL ITERATIONS

 NO OUTPUT CONTROL FOR STRESS PERIOD    1   TIME STEP 589
 
 SOLVING FOR HEAD 
 FLOW MODEL IS TRANSIENT
 FLOW MODEL CONTAINS CONSTANT-HEAD CELLS


 MAXIMUM STEPSIZE DURING WHICH ANY PARTICLE CANNOT MOVE MORE THAN ONE CELL
 =  5.763    (WHEN MIN. R.F.=1)  AT K=   6, I=   1, J=  74

 MAXIMUM STEPSIZE WHICH MEETS STABILITY CRITERION OF THE ADVECTION TERM
 (FOR PURE FINITE-DIFFERENCE OPTION, MIXELM=0) 
 =  3.834    (WHEN MIN. R.F.=1)  AT K=   2, I=   1, J=  78


 TOTAL NUMBER OF POINT SOURCES/SINKS PRESENT IN THE FLOW MODEL =    62

 MAXIMUM STEPSIZE WHICH MEETS STABILITY CRITERION OF THE SINK & SOURCE TERM
 =  449.6    (WHEN MIN. R.F.=1)  AT K=   2, I=   1, J= 120

 MAXIMUM STEPSIZE WHICH MEETS STABILITY CRITERION OF THE DISPERSION TERM
 =  20.29    (WHEN MIN. R.F.=1)  AT K=   1, I=   1, J=  31
     1 CALLS TO GCG PACKAGE FOR TRANSPORT TIME STEP   2 IN FLOW TIME STEP 589 STRESS PERIOD   1
     6 TOTAL ITERATIONS
 
 SOLVING FOR HEAD 
 FLOW MODEL IS TRANSIENT
 FLOW MODEL CONTAINS CONSTANT-HEAD CELLS


 MAXIMUM STEPSIZE DURING WHICH ANY PARTICLE CANNOT MOVE MORE THAN ONE CELL
 =  5.767    (WHEN MIN. R.F.=1)  AT K=   4, I=   1, J=  47

 MAXIMUM STEPSIZE WHICH MEETS STABILITY CRITERION OF THE ADVECTION TERM
 (FOR PURE FINITE-DIFFERENCE OPTION, MIXELM=0) 
 =  3.678    (WHEN MIN. R.F.=1)  AT K=   2, I=   1, J=  78


 TOTAL NUMBER OF POINT SOURCES/SINKS PRESENT IN THE FLOW MODEL =    62

 MAXIMUM STEPSIZE WHICH MEETS STABILITY CRITERION OF THE SINK & SOURCE TERM
 =  492.4    (WHEN MIN. R.F.=1)  AT K=   2, I=   1, J= 120

 MAXIMUM STEPSIZE WHICH MEETS STABILITY CRITERION OF THE DISPERSION TERM
 =  20.29    (WHEN MIN. R.F.=1)  AT K=   1, I=   1, J=  31
     1 CALLS TO GCG PACKAGE FOR TRANSPORT TIME STEP   3 IN FLOW TIME STEP 589 STRESS PERIOD   1
     6 TOTAL ITERATIONS
 
 SOLVING FOR HEAD 
 FLOW MODEL IS TRANSIENT
 FLOW MODEL CONTAINS CONSTANT-HEAD CELLS


 MAXIMUM STEPSIZE DURING WHICH ANY PARTICLE CANNOT MOVE MORE THAN ONE CELL
 =  5.474    (WHEN MIN. R.F.=1)  AT K=   4, I=   1, J=  47

 MAXIMUM STEPSIZE WHICH MEETS STABILITY CRITERION OF THE ADVECTION TERM
 (FOR PURE FINITE-DIFFERENCE OPTION, MIXELM=0) 
 =  3.676    (WHEN MIN. R.F.=1)  AT K=   2, I=   1, J=  78


 TOTAL NUMBER OF POINT SOURCES/SINKS PRESENT IN THE FLOW MODEL =    62

 MAXIMUM STEPSIZE WHICH MEETS STABILITY CRITERION OF THE SINK & SOURCE TERM
 =  581.1    (WHEN MIN. R.F.=1)  AT K=   2, I=   1, J= 120

 MAXIMUM STEPSIZE WHICH MEETS STABILITY CRITERION OF THE DISPERSION TERM
 =  20.29    (WHEN MIN. R.F.=1)  AT K=   1, I=   1, J=  31
     1 CALLS TO GCG PACKAGE FOR TRANSPORT TIME STEP   4 IN FLOW TIME STEP 589 STRESS PERIOD   1
     5 TOTAL ITERATIONS
  MAXIMUM CONCENTRATION CHANGES FOR EACH ITERATION:
  MAX. CHANGE LAYER,ROW,COL MAX. CHANGE LAYER,ROW,COL MAX. CHANGE LAYER,ROW,COL MAX. CHANGE LAYER,ROW,COL MAX. CHANGE LAYER,ROW,COL
 ------------------------------------------------------------------------------------------------------------------------------------
   0.1457E-01 (  2,  1, 79)  0.2995E-03 (  2,  1, 79)  0.7291E-05 (  2,  1, 80)  0.2139E-06 (  3,  1, 80)  0.5059E-08 (  4,  1, 79)


                                          ================================================
                                                         FROM TIME =   5890.0     TO    5900.0    

 
 SOLVING FOR HEAD 
 FLOW MODEL IS TRANSIENT
 FLOW MODEL CONTAINS CONSTANT-HEAD CELLS


 MAXIMUM STEPSIZE DURING WHICH ANY PARTICLE CANNOT MOVE MORE THAN ONE CELL
 =  5.380    (WHEN MIN. R.F.=1)  AT K=   4, I=   1, J=  47

 MAXIMUM STEPSIZE WHICH MEETS STABILITY CRITERION OF THE ADVECTION TERM
 (FOR PURE FINITE-DIFFERENCE OPTION, MIXELM=0) 
 =  3.718    (WHEN MIN. R.F.=1)  AT K=   2, I=   1, J=  78


 TOTAL NUMBER OF POINT SOURCES/SINKS PRESENT IN THE FLOW MODEL =    62

 MAXIMUM STEPSIZE WHICH MEETS STABILITY CRITERION OF THE SINK & SOURCE TERM
 =  702.3    (WHEN MIN. R.F.=1)  AT K=   2, I=   1, J= 120

 MAXIMUM STEPSIZE WHICH MEETS STABILITY CRITERION OF THE DISPERSION TERM
 =  20.29    (WHEN MIN. R.F.=1)  AT K=   1, I=   1, J=  31


     1 CALLS TO GCG PACKAGE FOR TRANSPORT TIME STEP   1 IN FLOW TIME STEP 590 STRESS PERIOD   1
     6 TOTAL ITERATIONS

 NO OUTPUT CONTROL FOR STRESS PERIOD    1   TIME STEP 590
 
 SOLVING FOR HEAD 
 FLOW MODEL IS TRANSIENT
 FLOW MODEL CONTAINS CONSTANT-HEAD CELLS


 MAXIMUM STEPSIZE DURING WHICH ANY PARTICLE CANNOT MOVE MORE THAN ONE CELL
 =  5.228    (WHEN MIN. R.F.=1)  AT K=   4, I=   1, J=  47

 MAXIMUM STEPSIZE WHICH MEETS STABILITY CRITERION OF THE ADVECTION TERM
 (FOR PURE FINITE-DIFFERENCE OPTION, MIXELM=0) 
 =  3.891    (WHEN MIN. R.F.=1)  AT K=   2, I=   1, J=  78


 TOTAL NUMBER OF POINT SOURCES/SINKS PRESENT IN THE FLOW MODEL =    62

 MAXIMUM STEPSIZE WHICH MEETS STABILITY CRITERION OF THE SINK & SOURCE TERM
 =  729.6    (WHEN MIN. R.F.=1)  AT K=   2, I=   1, J= 120

 MAXIMUM STEPSIZE WHICH MEETS STABILITY CRITERION OF THE DISPERSION TERM
 =  20.29    (WHEN MIN. R.F.=1)  AT K=   1, I=   1, J=  31
     1 CALLS TO GCG PACKAGE FOR TRANSPORT TIME STEP   2 IN FLOW TIME STEP 590 STRESS PERIOD   1
     6 TOTAL ITERATIONS
 
 SOLVING FOR HEAD 
 FLOW MODEL IS TRANSIENT
 FLOW MODEL CONTAINS CONSTANT-HEAD CELLS


 MAXIMUM STEPSIZE DURING WHICH ANY PARTICLE CANNOT MOVE MORE THAN ONE CELL
 =  5.155    (WHEN MIN. R.F.=1)  AT K=   4, I=   1, J=  47

 MAXIMUM STEPSIZE WHICH MEETS STABILITY CRITERION OF THE ADVECTION TERM
 (FOR PURE FINITE-DIFFERENCE OPTION, MIXELM=0) 
 =  4.244    (WHEN MIN. R.F.=1)  AT K=   2, I=   1, J=  47


 TOTAL NUMBER OF POINT SOURCES/SINKS PRESENT IN THE FLOW MODEL =    62

 MAXIMUM STEPSIZE WHICH MEETS STABILITY CRITERION OF THE SINK & SOURCE TERM
 =  793.9    (WHEN MIN. R.F.=1)  AT K=   2, I=   1, J= 120

 MAXIMUM STEPSIZE WHICH MEETS STABILITY CRITERION OF THE DISPERSION TERM
 =  20.29    (WHEN MIN. R.F.=1)  AT K=   1, I=   1, J=  31
     1 CALLS TO GCG PACKAGE FOR TRANSPORT TIME STEP   3 IN FLOW TIME STEP 590 STRESS PERIOD   1
     6 TOTAL ITERATIONS
 
 SOLVING FOR HEAD 
 FLOW MODEL IS TRANSIENT
 FLOW MODEL CONTAINS CONSTANT-HEAD CELLS


 MAXIMUM STEPSIZE DURING WHICH ANY PARTICLE CANNOT MOVE MORE THAN ONE CELL
 =  5.154    (WHEN MIN. R.F.=1)  AT K=   4, I=   1, J=  47

 MAXIMUM STEPSIZE WHICH MEETS STABILITY CRITERION OF THE ADVECTION TERM
 (FOR PURE FINITE-DIFFERENCE OPTION, MIXELM=0) 
 =  3.926    (WHEN MIN. R.F.=1)  AT K=   2, I=   1, J=  41


 TOTAL NUMBER OF POINT SOURCES/SINKS PRESENT IN THE FLOW MODEL =    62

 MAXIMUM STEPSIZE WHICH MEETS STABILITY CRITERION OF THE SINK & SOURCE TERM
 =  947.7    (WHEN MIN. R.F.=1)  AT K=   2, I=   1, J= 120

 MAXIMUM STEPSIZE WHICH MEETS STABILITY CRITERION OF THE DISPERSION TERM
 =  20.29    (WHEN MIN. R.F.=1)  AT K=   1, I=   1, J=  31
     1 CALLS TO GCG PACKAGE FOR TRANSPORT TIME STEP   4 IN FLOW TIME STEP 590 STRESS PERIOD   1
     5 TOTAL ITERATIONS
  MAXIMUM CONCENTRATION CHANGES FOR EACH ITERATION:
  MAX. CHANGE LAYER,ROW,COL MAX. CHANGE LAYER,ROW,COL MAX. CHANGE LAYER,ROW,COL MAX. CHANGE LAYER,ROW,COL MAX. CHANGE LAYER,ROW,COL
 ------------------------------------------------------------------------------------------------------------------------------------
   0.1622E-01 (  2,  1, 31)  0.5160E-03 (  2,  1, 77)  0.1368E-04 (  3,  1, 77)  0.4494E-06 (  3,  1, 44)  0.1293E-07 (  3,  1, 88)


                                          ================================================
                                                         FROM TIME =   5900.0     TO    5910.0    

 
 SOLVING FOR HEAD 
 FLOW MODEL IS TRANSIENT
 FLOW MODEL CONTAINS CONSTANT-HEAD CELLS


 MAXIMUM STEPSIZE DURING WHICH ANY PARTICLE CANNOT MOVE MORE THAN ONE CELL
 =  5.189    (WHEN MIN. R.F.=1)  AT K=   4, I=   1, J=  47

 MAXIMUM STEPSIZE WHICH MEETS STABILITY CRITERION OF THE ADVECTION TERM
 (FOR PURE FINITE-DIFFERENCE OPTION, MIXELM=0) 
 =  3.839    (WHEN MIN. R.F.=1)  AT K=   2, I=   1, J=  41


 TOTAL NUMBER OF POINT SOURCES/SINKS PRESENT IN THE FLOW MODEL =    62

 MAXIMUM STEPSIZE WHICH MEETS STABILITY CRITERION OF THE SINK & SOURCE TERM
 =  1215.    (WHEN MIN. R.F.=1)  AT K=   2, I=   1, J= 120

 MAXIMUM STEPSIZE WHICH MEETS STABILITY CRITERION OF THE DISPERSION TERM
 =  20.29    (WHEN MIN. R.F.=1)  AT K=   1, I=   1, J=  31


     1 CALLS TO GCG PACKAGE FOR TRANSPORT TIME STEP   1 IN FLOW TIME STEP 591 STRESS PERIOD   1
     6 TOTAL ITERATIONS

 NO OUTPUT CONTROL FOR STRESS PERIOD    1   TIME STEP 591
 
 SOLVING FOR HEAD 
 FLOW MODEL IS TRANSIENT
 FLOW MODEL CONTAINS CONSTANT-HEAD CELLS


 MAXIMUM STEPSIZE DURING WHICH ANY PARTICLE CANNOT MOVE MORE THAN ONE CELL
 =  5.260    (WHEN MIN. R.F.=1)  AT K=   5, I=   1, J=  47

 MAXIMUM STEPSIZE WHICH MEETS STABILITY CRITERION OF THE ADVECTION TERM
 (FOR PURE FINITE-DIFFERENCE OPTION, MIXELM=0) 
 =  3.784    (WHEN MIN. R.F.=1)  AT K=   2, I=   1, J=  41


 TOTAL NUMBER OF POINT SOURCES/SINKS PRESENT IN THE FLOW MODEL =    62

 MAXIMUM STEPSIZE WHICH MEETS STABILITY CRITERION OF THE SINK & SOURCE TERM
 =  1550.    (WHEN MIN. R.F.=1)  AT K=   2, I=   1, J= 120

 MAXIMUM STEPSIZE WHICH MEETS STABILITY CRITERION OF THE DISPERSION TERM
 =  20.29    (WHEN MIN. R.F.=1)  AT K=   1, I=   1, J=  31
     1 CALLS TO GCG PACKAGE FOR TRANSPORT TIME STEP   2 IN FLOW TIME STEP 591 STRESS PERIOD   1
     6 TOTAL ITERATIONS
 
 SOLVING FOR HEAD 
 FLOW MODEL IS TRANSIENT
 FLOW MODEL CONTAINS CONSTANT-HEAD CELLS


 MAXIMUM STEPSIZE DURING WHICH ANY PARTICLE CANNOT MOVE MORE THAN ONE CELL
 =  5.329    (WHEN MIN. R.F.=1)  AT K=   5, I=   1, J=  47

 MAXIMUM STEPSIZE WHICH MEETS STABILITY CRITERION OF THE ADVECTION TERM
 (FOR PURE FINITE-DIFFERENCE OPTION, MIXELM=0) 
 =  3.877    (WHEN MIN. R.F.=1)  AT K=   2, I=   1, J=  41


 TOTAL NUMBER OF POINT SOURCES/SINKS PRESENT IN THE FLOW MODEL =    62

 MAXIMUM STEPSIZE WHICH MEETS STABILITY CRITERION OF THE SINK & SOURCE TERM
 =  3601.    (WHEN MIN. R.F.=1)  AT K=   2, I=   1, J= 120

 MAXIMUM STEPSIZE WHICH MEETS STABILITY CRITERION OF THE DISPERSION TERM
 =  20.29    (WHEN MIN. R.F.=1)  AT K=   1, I=   1, J=  31
     1 CALLS TO GCG PACKAGE FOR TRANSPORT TIME STEP   3 IN FLOW TIME STEP 591 STRESS PERIOD   1
     6 TOTAL ITERATIONS
 
 SOLVING FOR HEAD 
 FLOW MODEL IS TRANSIENT
 FLOW MODEL CONTAINS CONSTANT-HEAD CELLS


 MAXIMUM STEPSIZE DURING WHICH ANY PARTICLE CANNOT MOVE MORE THAN ONE CELL
 =  5.440    (WHEN MIN. R.F.=1)  AT K=   5, I=   1, J=  47

 MAXIMUM STEPSIZE WHICH MEETS STABILITY CRITERION OF THE ADVECTION TERM
 (FOR PURE FINITE-DIFFERENCE OPTION, MIXELM=0) 
 =  4.044    (WHEN MIN. R.F.=1)  AT K=   2, I=   1, J=  77


 TOTAL NUMBER OF POINT SOURCES/SINKS PRESENT IN THE FLOW MODEL =    62

 MAXIMUM STEPSIZE WHICH MEETS STABILITY CRITERION OF THE SINK & SOURCE TERM
 = 0.2353E+05(WHEN MIN. R.F.=1)  AT K=   2, I=   1, J= 120

 MAXIMUM STEPSIZE WHICH MEETS STABILITY CRITERION OF THE DISPERSION TERM
 =  20.29    (WHEN MIN. R.F.=1)  AT K=   1, I=   1, J=  31
     1 CALLS TO GCG PACKAGE FOR TRANSPORT TIME STEP   4 IN FLOW TIME STEP 591 STRESS PERIOD   1
     5 TOTAL ITERATIONS
  MAXIMUM CONCENTRATION CHANGES FOR EACH ITERATION:
  MAX. CHANGE LAYER,ROW,COL MAX. CHANGE LAYER,ROW,COL MAX. CHANGE LAYER,ROW,COL MAX. CHANGE LAYER,ROW,COL MAX. CHANGE LAYER,ROW,COL
 ------------------------------------------------------------------------------------------------------------------------------------
   0.1682E-01 (  2,  1, 78)  0.3195E-03 (  2,  1, 75)  0.9750E-05 (  2,  1, 79)  0.3344E-06 (  3,  1, 79)  0.7575E-08 (  4,  1, 45)


                                          ================================================
                                                         FROM TIME =   5910.0     TO    5920.0    

 
 SOLVING FOR HEAD 
 FLOW MODEL IS TRANSIENT
 FLOW MODEL CONTAINS CONSTANT-HEAD CELLS


 MAXIMUM STEPSIZE DURING WHICH ANY PARTICLE CANNOT MOVE MORE THAN ONE CELL
 =  5.511    (WHEN MIN. R.F.=1)  AT K=   5, I=   1, J=  47

 MAXIMUM STEPSIZE WHICH MEETS STABILITY CRITERION OF THE ADVECTION TERM
 (FOR PURE FINITE-DIFFERENCE OPTION, MIXELM=0) 
 =  3.936    (WHEN MIN. R.F.=1)  AT K=   2, I=   1, J=  42


 TOTAL NUMBER OF POINT SOURCES/SINKS PRESENT IN THE FLOW MODEL =    62

 MAXIMUM STEPSIZE WHICH MEETS STABILITY CRITERION OF THE SINK & SOURCE TERM
 = 0.1000E+31(WHEN MIN. R.F.=1)  AT K=   0, I=   0, J=   0

 MAXIMUM STEPSIZE WHICH MEETS STABILITY CRITERION OF THE DISPERSION TERM
 =  20.29    (WHEN MIN. R.F.=1)  AT K=   1, I=   1, J=  31


     1 CALLS TO GCG PACKAGE FOR TRANSPORT TIME STEP   1 IN FLOW TIME STEP 592 STRESS PERIOD   1
     6 TOTAL ITERATIONS

 NO OUTPUT CONTROL FOR STRESS PERIOD    1   TIME STEP 592
 
 SOLVING FOR HEAD 
 FLOW MODEL IS TRANSIENT
 FLOW MODEL CONTAINS CONSTANT-HEAD CELLS


 MAXIMUM STEPSIZE DURING WHICH ANY PARTICLE CANNOT MOVE MORE THAN ONE CELL
 =  5.644    (WHEN MIN. R.F.=1)  AT K=   6, I=   1, J=  47

 MAXIMUM STEPSIZE WHICH MEETS STABILITY CRITERION OF THE ADVECTION TERM
 (FOR PURE FINITE-DIFFERENCE OPTION, MIXELM=0) 
 =  3.748    (WHEN MIN. R.F.=1)  AT K=   2, I=   1, J=  42


 TOTAL NUMBER OF POINT SOURCES/SINKS PRESENT IN THE FLOW MODEL =    62

 MAXIMUM STEPSIZE WHICH MEETS STABILITY CRITERION OF THE SINK & SOURCE TERM
 = 0.3263E+05(WHEN MIN. R.F.=1)  AT K=   2, I=   1, J=   1

 MAXIMUM STEPSIZE WHICH MEETS STABILITY CRITERION OF THE DISPERSION TERM
 =  20.29    (WHEN MIN. R.F.=1)  AT K=   1, I=   1, J=  31
     1 CALLS TO GCG PACKAGE FOR TRANSPORT TIME STEP   2 IN FLOW TIME STEP 592 STRESS PERIOD   1
     6 TOTAL ITERATIONS
 
 SOLVING FOR HEAD 
 FLOW MODEL IS TRANSIENT
 FLOW MODEL CONTAINS CONSTANT-HEAD CELLS


 MAXIMUM STEPSIZE DURING WHICH ANY PARTICLE CANNOT MOVE MORE THAN ONE CELL
 =  5.771    (WHEN MIN. R.F.=1)  AT K=   6, I=   1, J=  47

 MAXIMUM STEPSIZE WHICH MEETS STABILITY CRITERION OF THE ADVECTION TERM
 (FOR PURE FINITE-DIFFERENCE OPTION, MIXELM=0) 
 =  3.730    (WHEN MIN. R.F.=1)  AT K=   2, I=   1, J=  42


 TOTAL NUMBER OF POINT SOURCES/SINKS PRESENT IN THE FLOW MODEL =    62

 MAXIMUM STEPSIZE WHICH MEETS STABILITY CRITERION OF THE SINK & SOURCE TERM
 =  6077.    (WHEN MIN. R.F.=1)  AT K=   2, I=   1, J=   1

 MAXIMUM STEPSIZE WHICH MEETS STABILITY CRITERION OF THE DISPERSION TERM
 =  20.29    (WHEN MIN. R.F.=1)  AT K=   1, I=   1, J=  31
     1 CALLS TO GCG PACKAGE FOR TRANSPORT TIME STEP   3 IN FLOW TIME STEP 592 STRESS PERIOD   1
     6 TOTAL ITERATIONS
 
 SOLVING FOR HEAD 
 FLOW MODEL IS TRANSIENT
 FLOW MODEL CONTAINS CONSTANT-HEAD CELLS


 MAXIMUM STEPSIZE DURING WHICH ANY PARTICLE CANNOT MOVE MORE THAN ONE CELL
 =  5.922    (WHEN MIN. R.F.=1)  AT K=   7, I=   1, J=  47

 MAXIMUM STEPSIZE WHICH MEETS STABILITY CRITERION OF THE ADVECTION TERM
 (FOR PURE FINITE-DIFFERENCE OPTION, MIXELM=0) 
 =  3.822    (WHEN MIN. R.F.=1)  AT K=   2, I=   1, J=  42


 TOTAL NUMBER OF POINT SOURCES/SINKS PRESENT IN THE FLOW MODEL =    62

 MAXIMUM STEPSIZE WHICH MEETS STABILITY CRITERION OF THE SINK & SOURCE TERM
 =  5846.    (WHEN MIN. R.F.=1)  AT K=   2, I=   1, J=   1

 MAXIMUM STEPSIZE WHICH MEETS STABILITY CRITERION OF THE DISPERSION TERM
 =  20.29    (WHEN MIN. R.F.=1)  AT K=   1, I=   1, J=  31
     1 CALLS TO GCG PACKAGE FOR TRANSPORT TIME STEP   4 IN FLOW TIME STEP 592 STRESS PERIOD   1
     5 TOTAL ITERATIONS
  MAXIMUM CONCENTRATION CHANGES FOR EACH ITERATION:
  MAX. CHANGE LAYER,ROW,COL MAX. CHANGE LAYER,ROW,COL MAX. CHANGE LAYER,ROW,COL MAX. CHANGE LAYER,ROW,COL MAX. CHANGE LAYER,ROW,COL
 ------------------------------------------------------------------------------------------------------------------------------------
   0.1277E-01 (  2,  1, 31)  0.2442E-03 (  2,  1, 76)  0.6533E-05 (  3,  1, 43)  0.2467E-06 (  3,  1, 45)  0.4558E-08 (  4,  1, 45)


                                          ================================================
                                                         FROM TIME =   5920.0     TO    5930.0    

 
 SOLVING FOR HEAD 
 FLOW MODEL IS TRANSIENT
 FLOW MODEL CONTAINS CONSTANT-HEAD CELLS


 MAXIMUM STEPSIZE DURING WHICH ANY PARTICLE CANNOT MOVE MORE THAN ONE CELL
 =  5.963    (WHEN MIN. R.F.=1)  AT K=   7, I=   1, J=  47

 MAXIMUM STEPSIZE WHICH MEETS STABILITY CRITERION OF THE ADVECTION TERM
 (FOR PURE FINITE-DIFFERENCE OPTION, MIXELM=0) 
 =  3.918    (WHEN MIN. R.F.=1)  AT K=   2, I=   1, J=  42


 TOTAL NUMBER OF POINT SOURCES/SINKS PRESENT IN THE FLOW MODEL =    62

 MAXIMUM STEPSIZE WHICH MEETS STABILITY CRITERION OF THE SINK & SOURCE TERM
 = 0.1000E+31(WHEN MIN. R.F.=1)  AT K=   0, I=   0, J=   0

 MAXIMUM STEPSIZE WHICH MEETS STABILITY CRITERION OF THE DISPERSION TERM
 =  20.29    (WHEN MIN. R.F.=1)  AT K=   1, I=   1, J=  31


     1 CALLS TO GCG PACKAGE FOR TRANSPORT TIME STEP   1 IN FLOW TIME STEP 593 STRESS PERIOD   1
     6 TOTAL ITERATIONS

 NO OUTPUT CONTROL FOR STRESS PERIOD    1   TIME STEP 593
 
 SOLVING FOR HEAD 
 FLOW MODEL IS TRANSIENT
 FLOW MODEL CONTAINS CONSTANT-HEAD CELLS


 MAXIMUM STEPSIZE DURING WHICH ANY PARTICLE CANNOT MOVE MORE THAN ONE CELL
 =  6.000    (WHEN MIN. R.F.=1)  AT K=  28, I=   1, J=  52

 MAXIMUM STEPSIZE WHICH MEETS STABILITY CRITERION OF THE ADVECTION TERM
 (FOR PURE FINITE-DIFFERENCE OPTION, MIXELM=0) 
 =  4.102    (WHEN MIN. R.F.=1)  AT K=   2, I=   1, J=  43


 TOTAL NUMBER OF POINT SOURCES/SINKS PRESENT IN THE FLOW MODEL =    62

 MAXIMUM STEPSIZE WHICH MEETS STABILITY CRITERION OF THE SINK & SOURCE TERM
 =  2989.    (WHEN MIN. R.F.=1)  AT K=   2, I=   1, J=   1

 MAXIMUM STEPSIZE WHICH MEETS STABILITY CRITERION OF THE DISPERSION TERM
 =  20.29    (WHEN MIN. R.F.=1)  AT K=   1, I=   1, J=  31
     1 CALLS TO GCG PACKAGE FOR TRANSPORT TIME STEP   2 IN FLOW TIME STEP 593 STRESS PERIOD   1
     6 TOTAL ITERATIONS
 
 SOLVING FOR HEAD 
 FLOW MODEL IS TRANSIENT
 FLOW MODEL CONTAINS CONSTANT-HEAD CELLS


 MAXIMUM STEPSIZE DURING WHICH ANY PARTICLE CANNOT MOVE MORE THAN ONE CELL
 =  5.995    (WHEN MIN. R.F.=1)  AT K=  28, I=   1, J=  52

 MAXIMUM STEPSIZE WHICH MEETS STABILITY CRITERION OF THE ADVECTION TERM
 (FOR PURE FINITE-DIFFERENCE OPTION, MIXELM=0) 
 =  3.857    (WHEN MIN. R.F.=1)  AT K=   2, I=   1, J=  43


 TOTAL NUMBER OF POINT SOURCES/SINKS PRESENT IN THE FLOW MODEL =    62

 MAXIMUM STEPSIZE WHICH MEETS STABILITY CRITERION OF THE SINK & SOURCE TERM
 =  1776.    (WHEN MIN. R.F.=1)  AT K=   2, I=   1, J=   1

 MAXIMUM STEPSIZE WHICH MEETS STABILITY CRITERION OF THE DISPERSION TERM
 =  20.29    (WHEN MIN. R.F.=1)  AT K=   1, I=   1, J=  31
     1 CALLS TO GCG PACKAGE FOR TRANSPORT TIME STEP   3 IN FLOW TIME STEP 593 STRESS PERIOD   1
     6 TOTAL ITERATIONS
 
 SOLVING FOR HEAD 
 FLOW MODEL IS TRANSIENT
 FLOW MODEL CONTAINS CONSTANT-HEAD CELLS


 MAXIMUM STEPSIZE DURING WHICH ANY PARTICLE CANNOT MOVE MORE THAN ONE CELL
 =  5.988    (WHEN MIN. R.F.=1)  AT K=  28, I=   1, J=  52

 MAXIMUM STEPSIZE WHICH MEETS STABILITY CRITERION OF THE ADVECTION TERM
 (FOR PURE FINITE-DIFFERENCE OPTION, MIXELM=0) 
 =  3.775    (WHEN MIN. R.F.=1)  AT K=   2, I=   1, J=  43


 TOTAL NUMBER OF POINT SOURCES/SINKS PRESENT IN THE FLOW MODEL =    62

 MAXIMUM STEPSIZE WHICH MEETS STABILITY CRITERION OF THE SINK & SOURCE TERM
 =  1378.    (WHEN MIN. R.F.=1)  AT K=   2, I=   1, J=   1

 MAXIMUM STEPSIZE WHICH MEETS STABILITY CRITERION OF THE DISPERSION TERM
 =  20.29    (WHEN MIN. R.F.=1)  AT K=   1, I=   1, J=  31
     1 CALLS TO GCG PACKAGE FOR TRANSPORT TIME STEP   4 IN FLOW TIME STEP 593 STRESS PERIOD   1
     5 TOTAL ITERATIONS
  MAXIMUM CONCENTRATION CHANGES FOR EACH ITERATION:
  MAX. CHANGE LAYER,ROW,COL MAX. CHANGE LAYER,ROW,COL MAX. CHANGE LAYER,ROW,COL MAX. CHANGE LAYER,ROW,COL MAX. CHANGE LAYER,ROW,COL
 ------------------------------------------------------------------------------------------------------------------------------------
   0.1297E-01 (  2,  1, 77)  0.1880E-03 (  2,  1, 49)  0.4786E-05 (  3,  1, 44)  0.1355E-06 (  3,  1, 78)  0.2904E-08 (  4,  1, 81)


                                          ================================================
                                                         FROM TIME =   5930.0     TO    5940.0    

 
 SOLVING FOR HEAD 
 FLOW MODEL IS TRANSIENT
 FLOW MODEL CONTAINS CONSTANT-HEAD CELLS


 MAXIMUM STEPSIZE DURING WHICH ANY PARTICLE CANNOT MOVE MORE THAN ONE CELL
 =  5.991    (WHEN MIN. R.F.=1)  AT K=  28, I=   1, J=  52

 MAXIMUM STEPSIZE WHICH MEETS STABILITY CRITERION OF THE ADVECTION TERM
 (FOR PURE FINITE-DIFFERENCE OPTION, MIXELM=0) 
 =  3.783    (WHEN MIN. R.F.=1)  AT K=   2, I=   1, J=  43


 TOTAL NUMBER OF POINT SOURCES/SINKS PRESENT IN THE FLOW MODEL =    62

 MAXIMUM STEPSIZE WHICH MEETS STABILITY CRITERION OF THE SINK & SOURCE TERM
 =  1768.    (WHEN MIN. R.F.=1)  AT K=   2, I=   1, J=   1

 MAXIMUM STEPSIZE WHICH MEETS STABILITY CRITERION OF THE DISPERSION TERM
 =  20.29    (WHEN MIN. R.F.=1)  AT K=   1, I=   1, J=  31


     1 CALLS TO GCG PACKAGE FOR TRANSPORT TIME STEP   1 IN FLOW TIME STEP 594 STRESS PERIOD   1
     6 TOTAL ITERATIONS

 NO OUTPUT CONTROL FOR STRESS PERIOD    1   TIME STEP 594
 
 SOLVING FOR HEAD 
 FLOW MODEL IS TRANSIENT
 FLOW MODEL CONTAINS CONSTANT-HEAD CELLS


 MAXIMUM STEPSIZE DURING WHICH ANY PARTICLE CANNOT MOVE MORE THAN ONE CELL
 =  5.987    (WHEN MIN. R.F.=1)  AT K=  28, I=   1, J=  52

 MAXIMUM STEPSIZE WHICH MEETS STABILITY CRITERION OF THE ADVECTION TERM
 (FOR PURE FINITE-DIFFERENCE OPTION, MIXELM=0) 
 =  3.868    (WHEN MIN. R.F.=1)  AT K=   2, I=   1, J=  43


 TOTAL NUMBER OF POINT SOURCES/SINKS PRESENT IN THE FLOW MODEL =    62

 MAXIMUM STEPSIZE WHICH MEETS STABILITY CRITERION OF THE SINK & SOURCE TERM
 =  1113.    (WHEN MIN. R.F.=1)  AT K=   2, I=   1, J=   1

 MAXIMUM STEPSIZE WHICH MEETS STABILITY CRITERION OF THE DISPERSION TERM
 =  20.29    (WHEN MIN. R.F.=1)  AT K=   1, I=   1, J=  31
     1 CALLS TO GCG PACKAGE FOR TRANSPORT TIME STEP   2 IN FLOW TIME STEP 594 STRESS PERIOD   1
     6 TOTAL ITERATIONS
 
 SOLVING FOR HEAD 
 FLOW MODEL IS TRANSIENT
 FLOW MODEL CONTAINS CONSTANT-HEAD CELLS


 MAXIMUM STEPSIZE DURING WHICH ANY PARTICLE CANNOT MOVE MORE THAN ONE CELL
 =  5.983    (WHEN MIN. R.F.=1)  AT K=  28, I=   1, J=  52

 MAXIMUM STEPSIZE WHICH MEETS STABILITY CRITERION OF THE ADVECTION TERM
 (FOR PURE FINITE-DIFFERENCE OPTION, MIXELM=0) 
 =  4.099    (WHEN MIN. R.F.=1)  AT K=   2, I=   1, J=  43


 TOTAL NUMBER OF POINT SOURCES/SINKS PRESENT IN THE FLOW MODEL =    62

 MAXIMUM STEPSIZE WHICH MEETS STABILITY CRITERION OF THE SINK & SOURCE TERM
 =  1009.    (WHEN MIN. R.F.=1)  AT K=   2, I=   1, J=   1

 MAXIMUM STEPSIZE WHICH MEETS STABILITY CRITERION OF THE DISPERSION TERM
 =  20.29    (WHEN MIN. R.F.=1)  AT K=   1, I=   1, J=  31
     1 CALLS TO GCG PACKAGE FOR TRANSPORT TIME STEP   3 IN FLOW TIME STEP 594 STRESS PERIOD   1
     6 TOTAL ITERATIONS
 
 SOLVING FOR HEAD 
 FLOW MODEL IS TRANSIENT
 FLOW MODEL CONTAINS CONSTANT-HEAD CELLS


 MAXIMUM STEPSIZE DURING WHICH ANY PARTICLE CANNOT MOVE MORE THAN ONE CELL
 =  5.749    (WHEN MIN. R.F.=1)  AT K=   4, I=   1, J=  74

 MAXIMUM STEPSIZE WHICH MEETS STABILITY CRITERION OF THE ADVECTION TERM
 (FOR PURE FINITE-DIFFERENCE OPTION, MIXELM=0) 
 =  4.235    (WHEN MIN. R.F.=1)  AT K=   2, I=   1, J=  44


 TOTAL NUMBER OF POINT SOURCES/SINKS PRESENT IN THE FLOW MODEL =    62

 MAXIMUM STEPSIZE WHICH MEETS STABILITY CRITERION OF THE SINK & SOURCE TERM
 =  878.6    (WHEN MIN. R.F.=1)  AT K=   2, I=   1, J=   1

 MAXIMUM STEPSIZE WHICH MEETS STABILITY CRITERION OF THE DISPERSION TERM
 =  20.29    (WHEN MIN. R.F.=1)  AT K=   1, I=   1, J=  31
     1 CALLS TO GCG PACKAGE FOR TRANSPORT TIME STEP   4 IN FLOW TIME STEP 594 STRESS PERIOD   1
     5 TOTAL ITERATIONS
  MAXIMUM CONCENTRATION CHANGES FOR EACH ITERATION:
  MAX. CHANGE LAYER,ROW,COL MAX. CHANGE LAYER,ROW,COL MAX. CHANGE LAYER,ROW,COL MAX. CHANGE LAYER,ROW,COL MAX. CHANGE LAYER,ROW,COL
 ------------------------------------------------------------------------------------------------------------------------------------
   0.1699E-01 (  2,  1, 83)  0.3503E-03 (  2,  1, 44)  0.9807E-05 (  2,  1, 77)  0.3873E-06 (  3,  1, 77)  0.1019E-07 (  4,  1, 74)


                                          ================================================
                                                         FROM TIME =   5940.0     TO    5950.0    

 
 SOLVING FOR HEAD 
 FLOW MODEL IS TRANSIENT
 FLOW MODEL CONTAINS CONSTANT-HEAD CELLS


 MAXIMUM STEPSIZE DURING WHICH ANY PARTICLE CANNOT MOVE MORE THAN ONE CELL
 =  5.610    (WHEN MIN. R.F.=1)  AT K=   4, I=   1, J=  74

 MAXIMUM STEPSIZE WHICH MEETS STABILITY CRITERION OF THE ADVECTION TERM
 (FOR PURE FINITE-DIFFERENCE OPTION, MIXELM=0) 
 =  4.115    (WHEN MIN. R.F.=1)  AT K=   2, I=   1, J=  44


 TOTAL NUMBER OF POINT SOURCES/SINKS PRESENT IN THE FLOW MODEL =    62

 MAXIMUM STEPSIZE WHICH MEETS STABILITY CRITERION OF THE SINK & SOURCE TERM
 =  905.2    (WHEN MIN. R.F.=1)  AT K=   2, I=   1, J=   1

 MAXIMUM STEPSIZE WHICH MEETS STABILITY CRITERION OF THE DISPERSION TERM
 =  20.29    (WHEN MIN. R.F.=1)  AT K=   1, I=   1, J=  31


     1 CALLS TO GCG PACKAGE FOR TRANSPORT TIME STEP   1 IN FLOW TIME STEP 595 STRESS PERIOD   1
     6 TOTAL ITERATIONS

 NO OUTPUT CONTROL FOR STRESS PERIOD    1   TIME STEP 595
 
 SOLVING FOR HEAD 
 FLOW MODEL IS TRANSIENT
 FLOW MODEL CONTAINS CONSTANT-HEAD CELLS


 MAXIMUM STEPSIZE DURING WHICH ANY PARTICLE CANNOT MOVE MORE THAN ONE CELL
 =  5.360    (WHEN MIN. R.F.=1)  AT K=   4, I=   1, J=  74

 MAXIMUM STEPSIZE WHICH MEETS STABILITY CRITERION OF THE ADVECTION TERM
 (FOR PURE FINITE-DIFFERENCE OPTION, MIXELM=0) 
 =  3.952    (WHEN MIN. R.F.=1)  AT K=   2, I=   1, J=  81


 TOTAL NUMBER OF POINT SOURCES/SINKS PRESENT IN THE FLOW MODEL =    62

 MAXIMUM STEPSIZE WHICH MEETS STABILITY CRITERION OF THE SINK & SOURCE TERM
 =  695.2    (WHEN MIN. R.F.=1)  AT K=   2, I=   1, J=   1

 MAXIMUM STEPSIZE WHICH MEETS STABILITY CRITERION OF THE DISPERSION TERM
 =  20.29    (WHEN MIN. R.F.=1)  AT K=   1, I=   1, J=  31
     1 CALLS TO GCG PACKAGE FOR TRANSPORT TIME STEP   2 IN FLOW TIME STEP 595 STRESS PERIOD   1
     6 TOTAL ITERATIONS
 
 SOLVING FOR HEAD 
 FLOW MODEL IS TRANSIENT
 FLOW MODEL CONTAINS CONSTANT-HEAD CELLS


 MAXIMUM STEPSIZE DURING WHICH ANY PARTICLE CANNOT MOVE MORE THAN ONE CELL
 =  5.184    (WHEN MIN. R.F.=1)  AT K=   4, I=   1, J=  74

 MAXIMUM STEPSIZE WHICH MEETS STABILITY CRITERION OF THE ADVECTION TERM
 (FOR PURE FINITE-DIFFERENCE OPTION, MIXELM=0) 
 =  3.936    (WHEN MIN. R.F.=1)  AT K=   2, I=   1, J=  81


 TOTAL NUMBER OF POINT SOURCES/SINKS PRESENT IN THE FLOW MODEL =    62

 MAXIMUM STEPSIZE WHICH MEETS STABILITY CRITERION OF THE SINK & SOURCE TERM
 =  665.7    (WHEN MIN. R.F.=1)  AT K=   2, I=   1, J=   1

 MAXIMUM STEPSIZE WHICH MEETS STABILITY CRITERION OF THE DISPERSION TERM
 =  20.29    (WHEN MIN. R.F.=1)  AT K=   1, I=   1, J=  31
     1 CALLS TO GCG PACKAGE FOR TRANSPORT TIME STEP   3 IN FLOW TIME STEP 595 STRESS PERIOD   1
     6 TOTAL ITERATIONS
 
 SOLVING FOR HEAD 
 FLOW MODEL IS TRANSIENT
 FLOW MODEL CONTAINS CONSTANT-HEAD CELLS


 MAXIMUM STEPSIZE DURING WHICH ANY PARTICLE CANNOT MOVE MORE THAN ONE CELL
 =  5.069    (WHEN MIN. R.F.=1)  AT K=   4, I=   1, J=  74

 MAXIMUM STEPSIZE WHICH MEETS STABILITY CRITERION OF THE ADVECTION TERM
 (FOR PURE FINITE-DIFFERENCE OPTION, MIXELM=0) 
 =  4.093    (WHEN MIN. R.F.=1)  AT K=   2, I=   1, J=  44


 TOTAL NUMBER OF POINT SOURCES/SINKS PRESENT IN THE FLOW MODEL =    62

 MAXIMUM STEPSIZE WHICH MEETS STABILITY CRITERION OF THE SINK & SOURCE TERM
 =  620.2    (WHEN MIN. R.F.=1)  AT K=   2, I=   1, J=   1

 MAXIMUM STEPSIZE WHICH MEETS STABILITY CRITERION OF THE DISPERSION TERM
 =  20.29    (WHEN MIN. R.F.=1)  AT K=   1, I=   1, J=  31
     1 CALLS TO GCG PACKAGE FOR TRANSPORT TIME STEP   4 IN FLOW TIME STEP 595 STRESS PERIOD   1
     4 TOTAL ITERATIONS
  MAXIMUM CONCENTRATION CHANGES FOR EACH ITERATION:
  MAX. CHANGE LAYER,ROW,COL MAX. CHANGE LAYER,ROW,COL MAX. CHANGE LAYER,ROW,COL MAX. CHANGE LAYER,ROW,COL MAX. CHANGE LAYER,ROW,COL
 ------------------------------------------------------------------------------------------------------------------------------------
   0.9757E-02 (  2,  1, 82)  0.1130E-03 (  2,  1, 46)  0.2011E-05 (  3,  1, 80)  0.3147E-07 (  4,  1, 80)


                                          ================================================
                                                         FROM TIME =   5950.0     TO    5960.0    

 
 SOLVING FOR HEAD 
 FLOW MODEL IS TRANSIENT
 FLOW MODEL CONTAINS CONSTANT-HEAD CELLS


 MAXIMUM STEPSIZE DURING WHICH ANY PARTICLE CANNOT MOVE MORE THAN ONE CELL
 =  5.048    (WHEN MIN. R.F.=1)  AT K=   4, I=   1, J=  74

 MAXIMUM STEPSIZE WHICH MEETS STABILITY CRITERION OF THE ADVECTION TERM
 (FOR PURE FINITE-DIFFERENCE OPTION, MIXELM=0) 
 =  4.090    (WHEN MIN. R.F.=1)  AT K=   2, I=   1, J=  80


 TOTAL NUMBER OF POINT SOURCES/SINKS PRESENT IN THE FLOW MODEL =    62

 MAXIMUM STEPSIZE WHICH MEETS STABILITY CRITERION OF THE SINK & SOURCE TERM
 =  635.0    (WHEN MIN. R.F.=1)  AT K=   2, I=   1, J=   1

 MAXIMUM STEPSIZE WHICH MEETS STABILITY CRITERION OF THE DISPERSION TERM
 =  20.29    (WHEN MIN. R.F.=1)  AT K=   1, I=   1, J=  31


     1 CALLS TO GCG PACKAGE FOR TRANSPORT TIME STEP   1 IN FLOW TIME STEP 596 STRESS PERIOD   1
     6 TOTAL ITERATIONS

 NO OUTPUT CONTROL FOR STRESS PERIOD    1   TIME STEP 596
 
 SOLVING FOR HEAD 
 FLOW MODEL IS TRANSIENT
 FLOW MODEL CONTAINS CONSTANT-HEAD CELLS


 MAXIMUM STEPSIZE DURING WHICH ANY PARTICLE CANNOT MOVE MORE THAN ONE CELL
 =  4.998    (WHEN MIN. R.F.=1)  AT K=   4, I=   1, J=  74

 MAXIMUM STEPSIZE WHICH MEETS STABILITY CRITERION OF THE ADVECTION TERM
 (FOR PURE FINITE-DIFFERENCE OPTION, MIXELM=0) 
 =  3.749    (WHEN MIN. R.F.=1)  AT K=   2, I=   1, J=  80


 TOTAL NUMBER OF POINT SOURCES/SINKS PRESENT IN THE FLOW MODEL =    62

 MAXIMUM STEPSIZE WHICH MEETS STABILITY CRITERION OF THE SINK & SOURCE TERM
 =  501.5    (WHEN MIN. R.F.=1)  AT K=   2, I=   1, J=   1

 MAXIMUM STEPSIZE WHICH MEETS STABILITY CRITERION OF THE DISPERSION TERM
 =  20.29    (WHEN MIN. R.F.=1)  AT K=   1, I=   1, J=  31
     1 CALLS TO GCG PACKAGE FOR TRANSPORT TIME STEP   2 IN FLOW TIME STEP 596 STRESS PERIOD   1
     6 TOTAL ITERATIONS
 
 SOLVING FOR HEAD 
 FLOW MODEL IS TRANSIENT
 FLOW MODEL CONTAINS CONSTANT-HEAD CELLS


 MAXIMUM STEPSIZE DURING WHICH ANY PARTICLE CANNOT MOVE MORE THAN ONE CELL
 =  4.996    (WHEN MIN. R.F.=1)  AT K=   4, I=   1, J=  74

 MAXIMUM STEPSIZE WHICH MEETS STABILITY CRITERION OF THE ADVECTION TERM
 (FOR PURE FINITE-DIFFERENCE OPTION, MIXELM=0) 
 =  3.627    (WHEN MIN. R.F.=1)  AT K=   2, I=   1, J=  80


 TOTAL NUMBER OF POINT SOURCES/SINKS PRESENT IN THE FLOW MODEL =    62

 MAXIMUM STEPSIZE WHICH MEETS STABILITY CRITERION OF THE SINK & SOURCE TERM
 =  464.1    (WHEN MIN. R.F.=1)  AT K=   2, I=   1, J=   1

 MAXIMUM STEPSIZE WHICH MEETS STABILITY CRITERION OF THE DISPERSION TERM
 =  20.29    (WHEN MIN. R.F.=1)  AT K=   1, I=   1, J=  31
     1 CALLS TO GCG PACKAGE FOR TRANSPORT TIME STEP   3 IN FLOW TIME STEP 596 STRESS PERIOD   1
     6 TOTAL ITERATIONS
 
 SOLVING FOR HEAD 
 FLOW MODEL IS TRANSIENT
 FLOW MODEL CONTAINS CONSTANT-HEAD CELLS


 MAXIMUM STEPSIZE DURING WHICH ANY PARTICLE CANNOT MOVE MORE THAN ONE CELL
 =  5.040    (WHEN MIN. R.F.=1)  AT K=   4, I=   1, J=  74

 MAXIMUM STEPSIZE WHICH MEETS STABILITY CRITERION OF THE ADVECTION TERM
 (FOR PURE FINITE-DIFFERENCE OPTION, MIXELM=0) 
 =  3.668    (WHEN MIN. R.F.=1)  AT K=   2, I=   1, J=  80


 TOTAL NUMBER OF POINT SOURCES/SINKS PRESENT IN THE FLOW MODEL =    62

 MAXIMUM STEPSIZE WHICH MEETS STABILITY CRITERION OF THE SINK & SOURCE TERM
 =  455.9    (WHEN MIN. R.F.=1)  AT K=   2, I=   1, J=   1

 MAXIMUM STEPSIZE WHICH MEETS STABILITY CRITERION OF THE DISPERSION TERM
 =  20.29    (WHEN MIN. R.F.=1)  AT K=   1, I=   1, J=  31
     1 CALLS TO GCG PACKAGE FOR TRANSPORT TIME STEP   4 IN FLOW TIME STEP 596 STRESS PERIOD   1
     5 TOTAL ITERATIONS
  MAXIMUM CONCENTRATION CHANGES FOR EACH ITERATION:
  MAX. CHANGE LAYER,ROW,COL MAX. CHANGE LAYER,ROW,COL MAX. CHANGE LAYER,ROW,COL MAX. CHANGE LAYER,ROW,COL MAX. CHANGE LAYER,ROW,COL
 ------------------------------------------------------------------------------------------------------------------------------------
   0.1315E-01 (  2,  1, 81)  0.1859E-03 (  2,  1, 81)  0.5991E-05 (  3,  1, 79)  0.1264E-06 (  3,  1, 82)  0.2568E-08 (  4,  1, 77)


                                          ================================================
                                                         FROM TIME =   5960.0     TO    5970.0    

 
 SOLVING FOR HEAD 
 FLOW MODEL IS TRANSIENT
 FLOW MODEL CONTAINS CONSTANT-HEAD CELLS


 MAXIMUM STEPSIZE DURING WHICH ANY PARTICLE CANNOT MOVE MORE THAN ONE CELL
 =  5.071    (WHEN MIN. R.F.=1)  AT K=   4, I=   1, J=  74

 MAXIMUM STEPSIZE WHICH MEETS STABILITY CRITERION OF THE ADVECTION TERM
 (FOR PURE FINITE-DIFFERENCE OPTION, MIXELM=0) 
 =  3.763    (WHEN MIN. R.F.=1)  AT K=   2, I=   1, J=  80


 TOTAL NUMBER OF POINT SOURCES/SINKS PRESENT IN THE FLOW MODEL =    62

 MAXIMUM STEPSIZE WHICH MEETS STABILITY CRITERION OF THE SINK & SOURCE TERM
 =  516.9    (WHEN MIN. R.F.=1)  AT K=   2, I=   1, J=   1

 MAXIMUM STEPSIZE WHICH MEETS STABILITY CRITERION OF THE DISPERSION TERM
 =  20.29    (WHEN MIN. R.F.=1)  AT K=   1, I=   1, J=  31


     1 CALLS TO GCG PACKAGE FOR TRANSPORT TIME STEP   1 IN FLOW TIME STEP 597 STRESS PERIOD   1
     6 TOTAL ITERATIONS

 NO OUTPUT CONTROL FOR STRESS PERIOD    1   TIME STEP 597
 
 SOLVING FOR HEAD 
 FLOW MODEL IS TRANSIENT
 FLOW MODEL CONTAINS CONSTANT-HEAD CELLS


 MAXIMUM STEPSIZE DURING WHICH ANY PARTICLE CANNOT MOVE MORE THAN ONE CELL
 =  5.120    (WHEN MIN. R.F.=1)  AT K=   5, I=   1, J=  74

 MAXIMUM STEPSIZE WHICH MEETS STABILITY CRITERION OF THE ADVECTION TERM
 (FOR PURE FINITE-DIFFERENCE OPTION, MIXELM=0) 
 =  3.916    (WHEN MIN. R.F.=1)  AT K=   2, I=   1, J=  79


 TOTAL NUMBER OF POINT SOURCES/SINKS PRESENT IN THE FLOW MODEL =    62

 MAXIMUM STEPSIZE WHICH MEETS STABILITY CRITERION OF THE SINK & SOURCE TERM
 =  458.6    (WHEN MIN. R.F.=1)  AT K=   2, I=   1, J=   1

 MAXIMUM STEPSIZE WHICH MEETS STABILITY CRITERION OF THE DISPERSION TERM
 =  20.29    (WHEN MIN. R.F.=1)  AT K=   1, I=   1, J=  31
     1 CALLS TO GCG PACKAGE FOR TRANSPORT TIME STEP   2 IN FLOW TIME STEP 597 STRESS PERIOD   1
     5 TOTAL ITERATIONS



 >>>>>>>>>>>>>>>>>>>>>>>>>>>>>>>>>>>>>>>>>>>>>>>>>>>>>>>FOR COMPONENT NO. 01<<<<<<<<<<<<<<<<<<<<<<<<<<<<<<<<<<<<<<<<<<<<<<<<<<<<<<<


                                            -------------------------------------------
                                                      TRANSPORT STEP NO.    2
                                            -------------------------------------------

 TOTAL ELAPSED TIME SINCE BEGINNING OF SIMULATION =   5963.800    D   
 .....................................................................

                     CUMULATIVE MASS BUDGETS AT END OF TRANSPORT STEP    2, TIME STEP  597, STRESS PERIOD    1
                     ------------------------------------------------------------------------------------------

                                                             IN                           OUT
                                                      ----------------             ----------------
                               CONSTANT CONCENTRATION:    3461269.                   -2534288.    
                                        CONSTANT HEAD:    0.000000                   -911.3888    
                               MASS STOR (FLOW MODEL):    403.8270                   -597.8415    
                                MASS STORAGE (SOLUTE):    6108927.                   -7034802.    
                            ---------------------------------------------------------------------------
                                              [TOTAL]:    9570600.     KG            -9570600.     KG  

                                                          NET (IN - OUT):  -0.1850810E-01
                                                   DISCREPANCY (PERCENT):  -0.1933849E-06
 
 SOLVING FOR HEAD 
 FLOW MODEL IS TRANSIENT
 FLOW MODEL CONTAINS CONSTANT-HEAD CELLS


 MAXIMUM STEPSIZE DURING WHICH ANY PARTICLE CANNOT MOVE MORE THAN ONE CELL
 =  5.145    (WHEN MIN. R.F.=1)  AT K=   5, I=   1, J=  74

 MAXIMUM STEPSIZE WHICH MEETS STABILITY CRITERION OF THE ADVECTION TERM
 (FOR PURE FINITE-DIFFERENCE OPTION, MIXELM=0) 
 =  3.806    (WHEN MIN. R.F.=1)  AT K=   2, I=   1, J=  79


 TOTAL NUMBER OF POINT SOURCES/SINKS PRESENT IN THE FLOW MODEL =    62

 MAXIMUM STEPSIZE WHICH MEETS STABILITY CRITERION OF THE SINK & SOURCE TERM
 =  472.8    (WHEN MIN. R.F.=1)  AT K=   2, I=   1, J=   1

 MAXIMUM STEPSIZE WHICH MEETS STABILITY CRITERION OF THE DISPERSION TERM
 =  20.29    (WHEN MIN. R.F.=1)  AT K=   1, I=   1, J=  31
     1 CALLS TO GCG PACKAGE FOR TRANSPORT TIME STEP   3 IN FLOW TIME STEP 597 STRESS PERIOD   1
     6 TOTAL ITERATIONS
 
 SOLVING FOR HEAD 
 FLOW MODEL IS TRANSIENT
 FLOW MODEL CONTAINS CONSTANT-HEAD CELLS


 MAXIMUM STEPSIZE DURING WHICH ANY PARTICLE CANNOT MOVE MORE THAN ONE CELL
 =  5.235    (WHEN MIN. R.F.=1)  AT K=   5, I=   1, J=  74

 MAXIMUM STEPSIZE WHICH MEETS STABILITY CRITERION OF THE ADVECTION TERM
 (FOR PURE FINITE-DIFFERENCE OPTION, MIXELM=0) 
 =  3.614    (WHEN MIN. R.F.=1)  AT K=   2, I=   1, J=  79


 TOTAL NUMBER OF POINT SOURCES/SINKS PRESENT IN THE FLOW MODEL =    62

 MAXIMUM STEPSIZE WHICH MEETS STABILITY CRITERION OF THE SINK & SOURCE TERM
 =  390.3    (WHEN MIN. R.F.=1)  AT K=   2, I=   1, J=   1

 MAXIMUM STEPSIZE WHICH MEETS STABILITY CRITERION OF THE DISPERSION TERM
 =  20.29    (WHEN MIN. R.F.=1)  AT K=   1, I=   1, J=  31
     1 CALLS TO GCG PACKAGE FOR TRANSPORT TIME STEP   4 IN FLOW TIME STEP 597 STRESS PERIOD   1
     6 TOTAL ITERATIONS
 
 SOLVING FOR HEAD 
 FLOW MODEL IS TRANSIENT
 FLOW MODEL CONTAINS CONSTANT-HEAD CELLS


 MAXIMUM STEPSIZE DURING WHICH ANY PARTICLE CANNOT MOVE MORE THAN ONE CELL
 =  5.357    (WHEN MIN. R.F.=1)  AT K=   5, I=   1, J=  74

 MAXIMUM STEPSIZE WHICH MEETS STABILITY CRITERION OF THE ADVECTION TERM
 (FOR PURE FINITE-DIFFERENCE OPTION, MIXELM=0) 
 =  3.581    (WHEN MIN. R.F.=1)  AT K=   2, I=   1, J=  79


 TOTAL NUMBER OF POINT SOURCES/SINKS PRESENT IN THE FLOW MODEL =    62

 MAXIMUM STEPSIZE WHICH MEETS STABILITY CRITERION OF THE SINK & SOURCE TERM
 =  369.6    (WHEN MIN. R.F.=1)  AT K=   2, I=   1, J=   1

 MAXIMUM STEPSIZE WHICH MEETS STABILITY CRITERION OF THE DISPERSION TERM
 =  20.29    (WHEN MIN. R.F.=1)  AT K=   1, I=   1, J=  31
     1 CALLS TO GCG PACKAGE FOR TRANSPORT TIME STEP   5 IN FLOW TIME STEP 597 STRESS PERIOD   1
     4 TOTAL ITERATIONS
  MAXIMUM CONCENTRATION CHANGES FOR EACH ITERATION:
  MAX. CHANGE LAYER,ROW,COL MAX. CHANGE LAYER,ROW,COL MAX. CHANGE LAYER,ROW,COL MAX. CHANGE LAYER,ROW,COL MAX. CHANGE LAYER,ROW,COL
 ------------------------------------------------------------------------------------------------------------------------------------
   0.4649E-02 (  2,  1, 80)  0.3206E-04 (  2,  1, 80)  0.2895E-06 (  2,  1, 76)  0.4350E-08 (  3,  1, 76)


                                          ================================================
                                                         FROM TIME =   5970.0     TO    5980.0    

 
 SOLVING FOR HEAD 
 FLOW MODEL IS TRANSIENT
 FLOW MODEL CONTAINS CONSTANT-HEAD CELLS


 MAXIMUM STEPSIZE DURING WHICH ANY PARTICLE CANNOT MOVE MORE THAN ONE CELL
 =  5.379    (WHEN MIN. R.F.=1)  AT K=   5, I=   1, J=  74

 MAXIMUM STEPSIZE WHICH MEETS STABILITY CRITERION OF THE ADVECTION TERM
 (FOR PURE FINITE-DIFFERENCE OPTION, MIXELM=0) 
 =  3.591    (WHEN MIN. R.F.=1)  AT K=   2, I=   1, J=  79


 TOTAL NUMBER OF POINT SOURCES/SINKS PRESENT IN THE FLOW MODEL =    62

 MAXIMUM STEPSIZE WHICH MEETS STABILITY CRITERION OF THE SINK & SOURCE TERM
 =  387.8    (WHEN MIN. R.F.=1)  AT K=   2, I=   1, J=   1

 MAXIMUM STEPSIZE WHICH MEETS STABILITY CRITERION OF THE DISPERSION TERM
 =  20.29    (WHEN MIN. R.F.=1)  AT K=   1, I=   1, J=  31


     1 CALLS TO GCG PACKAGE FOR TRANSPORT TIME STEP   1 IN FLOW TIME STEP 598 STRESS PERIOD   1
     6 TOTAL ITERATIONS

 NO OUTPUT CONTROL FOR STRESS PERIOD    1   TIME STEP 598
 
 SOLVING FOR HEAD 
 FLOW MODEL IS TRANSIENT
 FLOW MODEL CONTAINS CONSTANT-HEAD CELLS


 MAXIMUM STEPSIZE DURING WHICH ANY PARTICLE CANNOT MOVE MORE THAN ONE CELL
 =  5.471    (WHEN MIN. R.F.=1)  AT K=   6, I=   1, J=  74

 MAXIMUM STEPSIZE WHICH MEETS STABILITY CRITERION OF THE ADVECTION TERM
 (FOR PURE FINITE-DIFFERENCE OPTION, MIXELM=0) 
 =  3.708    (WHEN MIN. R.F.=1)  AT K=   2, I=   1, J=  79


 TOTAL NUMBER OF POINT SOURCES/SINKS PRESENT IN THE FLOW MODEL =    62

 MAXIMUM STEPSIZE WHICH MEETS STABILITY CRITERION OF THE SINK & SOURCE TERM
 =  347.8    (WHEN MIN. R.F.=1)  AT K=   2, I=   1, J=   1

 MAXIMUM STEPSIZE WHICH MEETS STABILITY CRITERION OF THE DISPERSION TERM
 =  20.29    (WHEN MIN. R.F.=1)  AT K=   1, I=   1, J=  31
     1 CALLS TO GCG PACKAGE FOR TRANSPORT TIME STEP   2 IN FLOW TIME STEP 598 STRESS PERIOD   1
     6 TOTAL ITERATIONS
 
 SOLVING FOR HEAD 
 FLOW MODEL IS TRANSIENT
 FLOW MODEL CONTAINS CONSTANT-HEAD CELLS


 MAXIMUM STEPSIZE DURING WHICH ANY PARTICLE CANNOT MOVE MORE THAN ONE CELL
 =  5.584    (WHEN MIN. R.F.=1)  AT K=   6, I=   1, J=  74

 MAXIMUM STEPSIZE WHICH MEETS STABILITY CRITERION OF THE ADVECTION TERM
 (FOR PURE FINITE-DIFFERENCE OPTION, MIXELM=0) 
 =  4.034    (WHEN MIN. R.F.=1)  AT K=   2, I=   1, J=  79


 TOTAL NUMBER OF POINT SOURCES/SINKS PRESENT IN THE FLOW MODEL =    62

 MAXIMUM STEPSIZE WHICH MEETS STABILITY CRITERION OF THE SINK & SOURCE TERM
 =  331.7    (WHEN MIN. R.F.=1)  AT K=   2, I=   1, J=   1

 MAXIMUM STEPSIZE WHICH MEETS STABILITY CRITERION OF THE DISPERSION TERM
 =  20.29    (WHEN MIN. R.F.=1)  AT K=   1, I=   1, J=  31
     1 CALLS TO GCG PACKAGE FOR TRANSPORT TIME STEP   3 IN FLOW TIME STEP 598 STRESS PERIOD   1
     6 TOTAL ITERATIONS
 
 SOLVING FOR HEAD 
 FLOW MODEL IS TRANSIENT
 FLOW MODEL CONTAINS CONSTANT-HEAD CELLS


 MAXIMUM STEPSIZE DURING WHICH ANY PARTICLE CANNOT MOVE MORE THAN ONE CELL
 =  5.728    (WHEN MIN. R.F.=1)  AT K=   7, I=   1, J=  74

 MAXIMUM STEPSIZE WHICH MEETS STABILITY CRITERION OF THE ADVECTION TERM
 (FOR PURE FINITE-DIFFERENCE OPTION, MIXELM=0) 
 =  3.843    (WHEN MIN. R.F.=1)  AT K=   2, I=   1, J=  78


 TOTAL NUMBER OF POINT SOURCES/SINKS PRESENT IN THE FLOW MODEL =    62

 MAXIMUM STEPSIZE WHICH MEETS STABILITY CRITERION OF THE SINK & SOURCE TERM
 =  322.4    (WHEN MIN. R.F.=1)  AT K=   2, I=   1, J=   1

 MAXIMUM STEPSIZE WHICH MEETS STABILITY CRITERION OF THE DISPERSION TERM
 =  20.29    (WHEN MIN. R.F.=1)  AT K=   1, I=   1, J=  31
     1 CALLS TO GCG PACKAGE FOR TRANSPORT TIME STEP   4 IN FLOW TIME STEP 598 STRESS PERIOD   1
     5 TOTAL ITERATIONS
  MAXIMUM CONCENTRATION CHANGES FOR EACH ITERATION:
  MAX. CHANGE LAYER,ROW,COL MAX. CHANGE LAYER,ROW,COL MAX. CHANGE LAYER,ROW,COL MAX. CHANGE LAYER,ROW,COL MAX. CHANGE LAYER,ROW,COL
 ------------------------------------------------------------------------------------------------------------------------------------
   0.2067E-01 (  2,  1, 38)  0.6463E-03 (  2,  1, 78)  0.1907E-04 (  3,  1, 78)  0.7313E-06 (  3,  1, 32)  0.2826E-07 (  3,  1, 88)


                                          ================================================
                                                         FROM TIME =   5980.0     TO    5990.0    

 
 SOLVING FOR HEAD 
 FLOW MODEL IS TRANSIENT
 FLOW MODEL CONTAINS CONSTANT-HEAD CELLS


 MAXIMUM STEPSIZE DURING WHICH ANY PARTICLE CANNOT MOVE MORE THAN ONE CELL
 =  5.800    (WHEN MIN. R.F.=1)  AT K=   7, I=   1, J=  74

 MAXIMUM STEPSIZE WHICH MEETS STABILITY CRITERION OF THE ADVECTION TERM
 (FOR PURE FINITE-DIFFERENCE OPTION, MIXELM=0) 
 =  3.733    (WHEN MIN. R.F.=1)  AT K=   2, I=   1, J=  78


 TOTAL NUMBER OF POINT SOURCES/SINKS PRESENT IN THE FLOW MODEL =    62

 MAXIMUM STEPSIZE WHICH MEETS STABILITY CRITERION OF THE SINK & SOURCE TERM
 =  315.5    (WHEN MIN. R.F.=1)  AT K=   2, I=   1, J=   1

 MAXIMUM STEPSIZE WHICH MEETS STABILITY CRITERION OF THE DISPERSION TERM
 =  20.29    (WHEN MIN. R.F.=1)  AT K=   1, I=   1, J=  31


     1 CALLS TO GCG PACKAGE FOR TRANSPORT TIME STEP   1 IN FLOW TIME STEP 599 STRESS PERIOD   1
     6 TOTAL ITERATIONS

 NO OUTPUT CONTROL FOR STRESS PERIOD    1   TIME STEP 599
 
 SOLVING FOR HEAD 
 FLOW MODEL IS TRANSIENT
 FLOW MODEL CONTAINS CONSTANT-HEAD CELLS


 MAXIMUM STEPSIZE DURING WHICH ANY PARTICLE CANNOT MOVE MORE THAN ONE CELL
 =  5.920    (WHEN MIN. R.F.=1)  AT K=   4, I=   1, J=  47

 MAXIMUM STEPSIZE WHICH MEETS STABILITY CRITERION OF THE ADVECTION TERM
 (FOR PURE FINITE-DIFFERENCE OPTION, MIXELM=0) 
 =  3.668    (WHEN MIN. R.F.=1)  AT K=   2, I=   1, J=  78


 TOTAL NUMBER OF POINT SOURCES/SINKS PRESENT IN THE FLOW MODEL =    62

 MAXIMUM STEPSIZE WHICH MEETS STABILITY CRITERION OF THE SINK & SOURCE TERM
 =  290.2    (WHEN MIN. R.F.=1)  AT K=   2, I=   1, J=   1

 MAXIMUM STEPSIZE WHICH MEETS STABILITY CRITERION OF THE DISPERSION TERM
 =  20.29    (WHEN MIN. R.F.=1)  AT K=   1, I=   1, J=  31
     1 CALLS TO GCG PACKAGE FOR TRANSPORT TIME STEP   2 IN FLOW TIME STEP 599 STRESS PERIOD   1
     6 TOTAL ITERATIONS
 
 SOLVING FOR HEAD 
 FLOW MODEL IS TRANSIENT
 FLOW MODEL CONTAINS CONSTANT-HEAD CELLS


 MAXIMUM STEPSIZE DURING WHICH ANY PARTICLE CANNOT MOVE MORE THAN ONE CELL
 =  5.592    (WHEN MIN. R.F.=1)  AT K=   4, I=   1, J=  47

 MAXIMUM STEPSIZE WHICH MEETS STABILITY CRITERION OF THE ADVECTION TERM
 (FOR PURE FINITE-DIFFERENCE OPTION, MIXELM=0) 
 =  3.726    (WHEN MIN. R.F.=1)  AT K=   2, I=   1, J=  78


 TOTAL NUMBER OF POINT SOURCES/SINKS PRESENT IN THE FLOW MODEL =    62

 MAXIMUM STEPSIZE WHICH MEETS STABILITY CRITERION OF THE SINK & SOURCE TERM
 =  285.9    (WHEN MIN. R.F.=1)  AT K=   2, I=   1, J=   1

 MAXIMUM STEPSIZE WHICH MEETS STABILITY CRITERION OF THE DISPERSION TERM
 =  20.29    (WHEN MIN. R.F.=1)  AT K=   1, I=   1, J=  31
     1 CALLS TO GCG PACKAGE FOR TRANSPORT TIME STEP   3 IN FLOW TIME STEP 599 STRESS PERIOD   1
     6 TOTAL ITERATIONS
 
 SOLVING FOR HEAD 
 FLOW MODEL IS TRANSIENT
 FLOW MODEL CONTAINS CONSTANT-HEAD CELLS


 MAXIMUM STEPSIZE DURING WHICH ANY PARTICLE CANNOT MOVE MORE THAN ONE CELL
 =  5.361    (WHEN MIN. R.F.=1)  AT K=   4, I=   1, J=  47

 MAXIMUM STEPSIZE WHICH MEETS STABILITY CRITERION OF THE ADVECTION TERM
 (FOR PURE FINITE-DIFFERENCE OPTION, MIXELM=0) 
 =  3.925    (WHEN MIN. R.F.=1)  AT K=   2, I=   1, J=  78


 TOTAL NUMBER OF POINT SOURCES/SINKS PRESENT IN THE FLOW MODEL =    62

 MAXIMUM STEPSIZE WHICH MEETS STABILITY CRITERION OF THE SINK & SOURCE TERM
 =  279.8    (WHEN MIN. R.F.=1)  AT K=   2, I=   1, J=   1

 MAXIMUM STEPSIZE WHICH MEETS STABILITY CRITERION OF THE DISPERSION TERM
 =  20.29    (WHEN MIN. R.F.=1)  AT K=   1, I=   1, J=  31
     1 CALLS TO GCG PACKAGE FOR TRANSPORT TIME STEP   4 IN FLOW TIME STEP 599 STRESS PERIOD   1
     5 TOTAL ITERATIONS
  MAXIMUM CONCENTRATION CHANGES FOR EACH ITERATION:
  MAX. CHANGE LAYER,ROW,COL MAX. CHANGE LAYER,ROW,COL MAX. CHANGE LAYER,ROW,COL MAX. CHANGE LAYER,ROW,COL MAX. CHANGE LAYER,ROW,COL
 ------------------------------------------------------------------------------------------------------------------------------------
   0.1972E-01 (  2,  1, 79)  0.4838E-03 (  2,  1, 77)  0.1551E-04 (  3,  1, 77)  0.5229E-06 (  3,  1, 80)  0.1665E-07 (  5,  1, 80)


                                          ================================================
                                                         FROM TIME =   5990.0     TO    6000.0    

 
 SOLVING FOR HEAD 
 FLOW MODEL IS TRANSIENT
 FLOW MODEL CONTAINS CONSTANT-HEAD CELLS


 MAXIMUM STEPSIZE DURING WHICH ANY PARTICLE CANNOT MOVE MORE THAN ONE CELL
 =  5.269    (WHEN MIN. R.F.=1)  AT K=   4, I=   1, J=  47

 MAXIMUM STEPSIZE WHICH MEETS STABILITY CRITERION OF THE ADVECTION TERM
 (FOR PURE FINITE-DIFFERENCE OPTION, MIXELM=0) 
 =  4.064    (WHEN MIN. R.F.=1)  AT K=   2, I=   1, J=  40


 TOTAL NUMBER OF POINT SOURCES/SINKS PRESENT IN THE FLOW MODEL =    62

 MAXIMUM STEPSIZE WHICH MEETS STABILITY CRITERION OF THE SINK & SOURCE TERM
 =  281.9    (WHEN MIN. R.F.=1)  AT K=   2, I=   1, J=   1

 MAXIMUM STEPSIZE WHICH MEETS STABILITY CRITERION OF THE DISPERSION TERM
 =  20.29    (WHEN MIN. R.F.=1)  AT K=   1, I=   1, J=  31


     1 CALLS TO GCG PACKAGE FOR TRANSPORT TIME STEP   1 IN FLOW TIME STEP 600 STRESS PERIOD   1
     6 TOTAL ITERATIONS

 NO OUTPUT CONTROL FOR STRESS PERIOD    1   TIME STEP 600
 
 SOLVING FOR HEAD 
 FLOW MODEL IS TRANSIENT
 FLOW MODEL CONTAINS CONSTANT-HEAD CELLS


 MAXIMUM STEPSIZE DURING WHICH ANY PARTICLE CANNOT MOVE MORE THAN ONE CELL
 =  5.161    (WHEN MIN. R.F.=1)  AT K=   4, I=   1, J=  47

 MAXIMUM STEPSIZE WHICH MEETS STABILITY CRITERION OF THE ADVECTION TERM
 (FOR PURE FINITE-DIFFERENCE OPTION, MIXELM=0) 
 =  4.081    (WHEN MIN. R.F.=1)  AT K=   2, I=   1, J=  77


 TOTAL NUMBER OF POINT SOURCES/SINKS PRESENT IN THE FLOW MODEL =    62

 MAXIMUM STEPSIZE WHICH MEETS STABILITY CRITERION OF THE SINK & SOURCE TERM
 =  260.8    (WHEN MIN. R.F.=1)  AT K=   2, I=   1, J=   1

 MAXIMUM STEPSIZE WHICH MEETS STABILITY CRITERION OF THE DISPERSION TERM
 =  20.29    (WHEN MIN. R.F.=1)  AT K=   1, I=   1, J=  31
     1 CALLS TO GCG PACKAGE FOR TRANSPORT TIME STEP   2 IN FLOW TIME STEP 600 STRESS PERIOD   1
     6 TOTAL ITERATIONS
 
 SOLVING FOR HEAD 
 FLOW MODEL IS TRANSIENT
 FLOW MODEL CONTAINS CONSTANT-HEAD CELLS


 MAXIMUM STEPSIZE DURING WHICH ANY PARTICLE CANNOT MOVE MORE THAN ONE CELL
 =  5.136    (WHEN MIN. R.F.=1)  AT K=   4, I=   1, J=  47

 MAXIMUM STEPSIZE WHICH MEETS STABILITY CRITERION OF THE ADVECTION TERM
 (FOR PURE FINITE-DIFFERENCE OPTION, MIXELM=0) 
 =  3.887    (WHEN MIN. R.F.=1)  AT K=   2, I=   1, J=  77


 TOTAL NUMBER OF POINT SOURCES/SINKS PRESENT IN THE FLOW MODEL =    62

 MAXIMUM STEPSIZE WHICH MEETS STABILITY CRITERION OF THE SINK & SOURCE TERM
 =  250.5    (WHEN MIN. R.F.=1)  AT K=   2, I=   1, J=   1

 MAXIMUM STEPSIZE WHICH MEETS STABILITY CRITERION OF THE DISPERSION TERM
 =  20.29    (WHEN MIN. R.F.=1)  AT K=   1, I=   1, J=  31
     1 CALLS TO GCG PACKAGE FOR TRANSPORT TIME STEP   3 IN FLOW TIME STEP 600 STRESS PERIOD   1
     6 TOTAL ITERATIONS
 
 SOLVING FOR HEAD 
 FLOW MODEL IS TRANSIENT
 FLOW MODEL CONTAINS CONSTANT-HEAD CELLS


 MAXIMUM STEPSIZE DURING WHICH ANY PARTICLE CANNOT MOVE MORE THAN ONE CELL
 =  5.191    (WHEN MIN. R.F.=1)  AT K=   4, I=   1, J=  47

 MAXIMUM STEPSIZE WHICH MEETS STABILITY CRITERION OF THE ADVECTION TERM
 (FOR PURE FINITE-DIFFERENCE OPTION, MIXELM=0) 
 =  3.789    (WHEN MIN. R.F.=1)  AT K=   2, I=   1, J=  41


 TOTAL NUMBER OF POINT SOURCES/SINKS PRESENT IN THE FLOW MODEL =    62

 MAXIMUM STEPSIZE WHICH MEETS STABILITY CRITERION OF THE SINK & SOURCE TERM
 =  246.9    (WHEN MIN. R.F.=1)  AT K=   2, I=   1, J=   1

 MAXIMUM STEPSIZE WHICH MEETS STABILITY CRITERION OF THE DISPERSION TERM
 =  20.29    (WHEN MIN. R.F.=1)  AT K=   1, I=   1, J=  31
     1 CALLS TO GCG PACKAGE FOR TRANSPORT TIME STEP   4 IN FLOW TIME STEP 600 STRESS PERIOD   1
     4 TOTAL ITERATIONS
  MAXIMUM CONCENTRATION CHANGES FOR EACH ITERATION:
  MAX. CHANGE LAYER,ROW,COL MAX. CHANGE LAYER,ROW,COL MAX. CHANGE LAYER,ROW,COL MAX. CHANGE LAYER,ROW,COL MAX. CHANGE LAYER,ROW,COL
 ------------------------------------------------------------------------------------------------------------------------------------
   0.1040E-01 (  2,  1, 78)  0.1695E-03 (  2,  1, 78)  0.3215E-05 (  3,  1, 42)  0.7824E-07 (  3,  1, 44)


                                          ================================================
                                                         FROM TIME =   6000.0     TO    6010.0    

 
 SOLVING FOR HEAD 
 FLOW MODEL IS TRANSIENT
 FLOW MODEL CONTAINS CONSTANT-HEAD CELLS


 MAXIMUM STEPSIZE DURING WHICH ANY PARTICLE CANNOT MOVE MORE THAN ONE CELL
 =  5.223    (WHEN MIN. R.F.=1)  AT K=   4, I=   1, J=  47

 MAXIMUM STEPSIZE WHICH MEETS STABILITY CRITERION OF THE ADVECTION TERM
 (FOR PURE FINITE-DIFFERENCE OPTION, MIXELM=0) 
 =  3.779    (WHEN MIN. R.F.=1)  AT K=   2, I=   1, J=  41


 TOTAL NUMBER OF POINT SOURCES/SINKS PRESENT IN THE FLOW MODEL =    62

 MAXIMUM STEPSIZE WHICH MEETS STABILITY CRITERION OF THE SINK & SOURCE TERM
 =  268.7    (WHEN MIN. R.F.=1)  AT K=   2, I=   1, J=   1

 MAXIMUM STEPSIZE WHICH MEETS STABILITY CRITERION OF THE DISPERSION TERM
 =  20.29    (WHEN MIN. R.F.=1)  AT K=   1, I=   1, J=  31


     1 CALLS TO GCG PACKAGE FOR TRANSPORT TIME STEP   1 IN FLOW TIME STEP 601 STRESS PERIOD   1
     6 TOTAL ITERATIONS

 NO OUTPUT CONTROL FOR STRESS PERIOD    1   TIME STEP 601
 
 SOLVING FOR HEAD 
 FLOW MODEL IS TRANSIENT
 FLOW MODEL CONTAINS CONSTANT-HEAD CELLS


 MAXIMUM STEPSIZE DURING WHICH ANY PARTICLE CANNOT MOVE MORE THAN ONE CELL
 =  5.275    (WHEN MIN. R.F.=1)  AT K=   5, I=   1, J=  47

 MAXIMUM STEPSIZE WHICH MEETS STABILITY CRITERION OF THE ADVECTION TERM
 (FOR PURE FINITE-DIFFERENCE OPTION, MIXELM=0) 
 =  3.838    (WHEN MIN. R.F.=1)  AT K=   2, I=   1, J=  41


 TOTAL NUMBER OF POINT SOURCES/SINKS PRESENT IN THE FLOW MODEL =    62

 MAXIMUM STEPSIZE WHICH MEETS STABILITY CRITERION OF THE SINK & SOURCE TERM
 =  252.3    (WHEN MIN. R.F.=1)  AT K=   2, I=   1, J=   1

 MAXIMUM STEPSIZE WHICH MEETS STABILITY CRITERION OF THE DISPERSION TERM
 =  20.29    (WHEN MIN. R.F.=1)  AT K=   1, I=   1, J=  31
     1 CALLS TO GCG PACKAGE FOR TRANSPORT TIME STEP   2 IN FLOW TIME STEP 601 STRESS PERIOD   1
     6 TOTAL ITERATIONS
 
 SOLVING FOR HEAD 
 FLOW MODEL IS TRANSIENT
 FLOW MODEL CONTAINS CONSTANT-HEAD CELLS


 MAXIMUM STEPSIZE DURING WHICH ANY PARTICLE CANNOT MOVE MORE THAN ONE CELL
 =  5.364    (WHEN MIN. R.F.=1)  AT K=   5, I=   1, J=  47

 MAXIMUM STEPSIZE WHICH MEETS STABILITY CRITERION OF THE ADVECTION TERM
 (FOR PURE FINITE-DIFFERENCE OPTION, MIXELM=0) 
 =  4.097    (WHEN MIN. R.F.=1)  AT K=   2, I=   1, J=  41


 TOTAL NUMBER OF POINT SOURCES/SINKS PRESENT IN THE FLOW MODEL =    62

 MAXIMUM STEPSIZE WHICH MEETS STABILITY CRITERION OF THE SINK & SOURCE TERM
 =  245.8    (WHEN MIN. R.F.=1)  AT K=   2, I=   1, J=   1

 MAXIMUM STEPSIZE WHICH MEETS STABILITY CRITERION OF THE DISPERSION TERM
 =  20.29    (WHEN MIN. R.F.=1)  AT K=   1, I=   1, J=  31
     1 CALLS TO GCG PACKAGE FOR TRANSPORT TIME STEP   3 IN FLOW TIME STEP 601 STRESS PERIOD   1
     6 TOTAL ITERATIONS
 
 SOLVING FOR HEAD 
 FLOW MODEL IS TRANSIENT
 FLOW MODEL CONTAINS CONSTANT-HEAD CELLS


 MAXIMUM STEPSIZE DURING WHICH ANY PARTICLE CANNOT MOVE MORE THAN ONE CELL
 =  5.493    (WHEN MIN. R.F.=1)  AT K=   5, I=   1, J=  47

 MAXIMUM STEPSIZE WHICH MEETS STABILITY CRITERION OF THE ADVECTION TERM
 (FOR PURE FINITE-DIFFERENCE OPTION, MIXELM=0) 
 =  3.864    (WHEN MIN. R.F.=1)  AT K=   2, I=   1, J=  42


 TOTAL NUMBER OF POINT SOURCES/SINKS PRESENT IN THE FLOW MODEL =    62

 MAXIMUM STEPSIZE WHICH MEETS STABILITY CRITERION OF THE SINK & SOURCE TERM
 =  239.2    (WHEN MIN. R.F.=1)  AT K=   2, I=   1, J=   1

 MAXIMUM STEPSIZE WHICH MEETS STABILITY CRITERION OF THE DISPERSION TERM
 =  20.29    (WHEN MIN. R.F.=1)  AT K=   1, I=   1, J=  31
     1 CALLS TO GCG PACKAGE FOR TRANSPORT TIME STEP   4 IN FLOW TIME STEP 601 STRESS PERIOD   1
     5 TOTAL ITERATIONS
  MAXIMUM CONCENTRATION CHANGES FOR EACH ITERATION:
  MAX. CHANGE LAYER,ROW,COL MAX. CHANGE LAYER,ROW,COL MAX. CHANGE LAYER,ROW,COL MAX. CHANGE LAYER,ROW,COL MAX. CHANGE LAYER,ROW,COL
 ------------------------------------------------------------------------------------------------------------------------------------
   0.1553E-01 (  2,  1, 40)  0.3997E-03 (  2,  1, 76)  0.1087E-04 (  2,  1, 45)  0.5641E-06 (  3,  1, 45)  0.1528E-07 (  4,  1, 45)


                                          ================================================
                                                         FROM TIME =   6010.0     TO    6020.0    

 
 SOLVING FOR HEAD 
 FLOW MODEL IS TRANSIENT
 FLOW MODEL CONTAINS CONSTANT-HEAD CELLS


 MAXIMUM STEPSIZE DURING WHICH ANY PARTICLE CANNOT MOVE MORE THAN ONE CELL
 =  5.575    (WHEN MIN. R.F.=1)  AT K=   6, I=   1, J=  47

 MAXIMUM STEPSIZE WHICH MEETS STABILITY CRITERION OF THE ADVECTION TERM
 (FOR PURE FINITE-DIFFERENCE OPTION, MIXELM=0) 
 =  3.785    (WHEN MIN. R.F.=1)  AT K=   2, I=   1, J=  42


 TOTAL NUMBER OF POINT SOURCES/SINKS PRESENT IN THE FLOW MODEL =    62

 MAXIMUM STEPSIZE WHICH MEETS STABILITY CRITERION OF THE SINK & SOURCE TERM
 =  239.8    (WHEN MIN. R.F.=1)  AT K=   2, I=   1, J=   1

 MAXIMUM STEPSIZE WHICH MEETS STABILITY CRITERION OF THE DISPERSION TERM
 =  20.29    (WHEN MIN. R.F.=1)  AT K=   1, I=   1, J=  31


     1 CALLS TO GCG PACKAGE FOR TRANSPORT TIME STEP   1 IN FLOW TIME STEP 602 STRESS PERIOD   1
     6 TOTAL ITERATIONS

 NO OUTPUT CONTROL FOR STRESS PERIOD    1   TIME STEP 602
 
 SOLVING FOR HEAD 
 FLOW MODEL IS TRANSIENT
 FLOW MODEL CONTAINS CONSTANT-HEAD CELLS


 MAXIMUM STEPSIZE DURING WHICH ANY PARTICLE CANNOT MOVE MORE THAN ONE CELL
 =  5.677    (WHEN MIN. R.F.=1)  AT K=   6, I=   1, J=  47

 MAXIMUM STEPSIZE WHICH MEETS STABILITY CRITERION OF THE ADVECTION TERM
 (FOR PURE FINITE-DIFFERENCE OPTION, MIXELM=0) 
 =  3.732    (WHEN MIN. R.F.=1)  AT K=   2, I=   1, J=  42


 TOTAL NUMBER OF POINT SOURCES/SINKS PRESENT IN THE FLOW MODEL =    62

 MAXIMUM STEPSIZE WHICH MEETS STABILITY CRITERION OF THE SINK & SOURCE TERM
 =  225.3    (WHEN MIN. R.F.=1)  AT K=   2, I=   1, J=   1

 MAXIMUM STEPSIZE WHICH MEETS STABILITY CRITERION OF THE DISPERSION TERM
 =  20.29    (WHEN MIN. R.F.=1)  AT K=   1, I=   1, J=  31
     1 CALLS TO GCG PACKAGE FOR TRANSPORT TIME STEP   2 IN FLOW TIME STEP 602 STRESS PERIOD   1
     6 TOTAL ITERATIONS
 
 SOLVING FOR HEAD 
 FLOW MODEL IS TRANSIENT
 FLOW MODEL CONTAINS CONSTANT-HEAD CELLS


 MAXIMUM STEPSIZE DURING WHICH ANY PARTICLE CANNOT MOVE MORE THAN ONE CELL
 =  5.812    (WHEN MIN. R.F.=1)  AT K=   6, I=   1, J=  47

 MAXIMUM STEPSIZE WHICH MEETS STABILITY CRITERION OF THE ADVECTION TERM
 (FOR PURE FINITE-DIFFERENCE OPTION, MIXELM=0) 
 =  3.794    (WHEN MIN. R.F.=1)  AT K=   2, I=   1, J=  42


 TOTAL NUMBER OF POINT SOURCES/SINKS PRESENT IN THE FLOW MODEL =    62

 MAXIMUM STEPSIZE WHICH MEETS STABILITY CRITERION OF THE SINK & SOURCE TERM
 =  231.5    (WHEN MIN. R.F.=1)  AT K=   2, I=   1, J=   1

 MAXIMUM STEPSIZE WHICH MEETS STABILITY CRITERION OF THE DISPERSION TERM
 =  20.29    (WHEN MIN. R.F.=1)  AT K=   1, I=   1, J=  31
     1 CALLS TO GCG PACKAGE FOR TRANSPORT TIME STEP   3 IN FLOW TIME STEP 602 STRESS PERIOD   1
     6 TOTAL ITERATIONS
 
 SOLVING FOR HEAD 
 FLOW MODEL IS TRANSIENT
 FLOW MODEL CONTAINS CONSTANT-HEAD CELLS


 MAXIMUM STEPSIZE DURING WHICH ANY PARTICLE CANNOT MOVE MORE THAN ONE CELL
 =  5.930    (WHEN MIN. R.F.=1)  AT K=  28, I=   1, J=  52

 MAXIMUM STEPSIZE WHICH MEETS STABILITY CRITERION OF THE ADVECTION TERM
 (FOR PURE FINITE-DIFFERENCE OPTION, MIXELM=0) 
 =  4.016    (WHEN MIN. R.F.=1)  AT K=   2, I=   1, J=  42


 TOTAL NUMBER OF POINT SOURCES/SINKS PRESENT IN THE FLOW MODEL =    62

 MAXIMUM STEPSIZE WHICH MEETS STABILITY CRITERION OF THE SINK & SOURCE TERM
 =  232.2    (WHEN MIN. R.F.=1)  AT K=   2, I=   1, J=   1

 MAXIMUM STEPSIZE WHICH MEETS STABILITY CRITERION OF THE DISPERSION TERM
 =  20.29    (WHEN MIN. R.F.=1)  AT K=   1, I=   1, J=  31
     1 CALLS TO GCG PACKAGE FOR TRANSPORT TIME STEP   4 IN FLOW TIME STEP 602 STRESS PERIOD   1
     5 TOTAL ITERATIONS
  MAXIMUM CONCENTRATION CHANGES FOR EACH ITERATION:
  MAX. CHANGE LAYER,ROW,COL MAX. CHANGE LAYER,ROW,COL MAX. CHANGE LAYER,ROW,COL MAX. CHANGE LAYER,ROW,COL MAX. CHANGE LAYER,ROW,COL
 ------------------------------------------------------------------------------------------------------------------------------------
   0.1717E-01 (  2,  1, 77)  0.3680E-03 (  2,  1, 77)  0.1309E-04 (  2,  1, 78)  0.4742E-06 (  3,  1, 78)  0.1053E-07 (  3,  1, 79)


                                          ================================================
                                                         FROM TIME =   6020.0     TO    6030.0    

 
 SOLVING FOR HEAD 
 FLOW MODEL IS TRANSIENT
 FLOW MODEL CONTAINS CONSTANT-HEAD CELLS


 MAXIMUM STEPSIZE DURING WHICH ANY PARTICLE CANNOT MOVE MORE THAN ONE CELL
 =  5.934    (WHEN MIN. R.F.=1)  AT K=  28, I=   1, J=  52

 MAXIMUM STEPSIZE WHICH MEETS STABILITY CRITERION OF THE ADVECTION TERM
 (FOR PURE FINITE-DIFFERENCE OPTION, MIXELM=0) 
 =  4.171    (WHEN MIN. R.F.=1)  AT K=   2, I=   1, J=  43


 TOTAL NUMBER OF POINT SOURCES/SINKS PRESENT IN THE FLOW MODEL =    62

 MAXIMUM STEPSIZE WHICH MEETS STABILITY CRITERION OF THE SINK & SOURCE TERM
 =  234.4    (WHEN MIN. R.F.=1)  AT K=   2, I=   1, J=   1

 MAXIMUM STEPSIZE WHICH MEETS STABILITY CRITERION OF THE DISPERSION TERM
 =  20.29    (WHEN MIN. R.F.=1)  AT K=   1, I=   1, J=  31


     1 CALLS TO GCG PACKAGE FOR TRANSPORT TIME STEP   1 IN FLOW TIME STEP 603 STRESS PERIOD   1
     6 TOTAL ITERATIONS

 NO OUTPUT CONTROL FOR STRESS PERIOD    1   TIME STEP 603
 
 SOLVING FOR HEAD 
 FLOW MODEL IS TRANSIENT
 FLOW MODEL CONTAINS CONSTANT-HEAD CELLS


 MAXIMUM STEPSIZE DURING WHICH ANY PARTICLE CANNOT MOVE MORE THAN ONE CELL
 =  5.932    (WHEN MIN. R.F.=1)  AT K=  28, I=   1, J=  52

 MAXIMUM STEPSIZE WHICH MEETS STABILITY CRITERION OF THE ADVECTION TERM
 (FOR PURE FINITE-DIFFERENCE OPTION, MIXELM=0) 
 =  3.885    (WHEN MIN. R.F.=1)  AT K=   2, I=   1, J=  43


 TOTAL NUMBER OF POINT SOURCES/SINKS PRESENT IN THE FLOW MODEL =    62

 MAXIMUM STEPSIZE WHICH MEETS STABILITY CRITERION OF THE SINK & SOURCE TERM
 =  219.5    (WHEN MIN. R.F.=1)  AT K=   2, I=   1, J=   1

 MAXIMUM STEPSIZE WHICH MEETS STABILITY CRITERION OF THE DISPERSION TERM
 =  20.29    (WHEN MIN. R.F.=1)  AT K=   1, I=   1, J=  31
     1 CALLS TO GCG PACKAGE FOR TRANSPORT TIME STEP   2 IN FLOW TIME STEP 603 STRESS PERIOD   1
     6 TOTAL ITERATIONS
 
 SOLVING FOR HEAD 
 FLOW MODEL IS TRANSIENT
 FLOW MODEL CONTAINS CONSTANT-HEAD CELLS


 MAXIMUM STEPSIZE DURING WHICH ANY PARTICLE CANNOT MOVE MORE THAN ONE CELL
 =  5.928    (WHEN MIN. R.F.=1)  AT K=  28, I=   1, J=  52

 MAXIMUM STEPSIZE WHICH MEETS STABILITY CRITERION OF THE ADVECTION TERM
 (FOR PURE FINITE-DIFFERENCE OPTION, MIXELM=0) 
 =  3.780    (WHEN MIN. R.F.=1)  AT K=   2, I=   1, J=  43


 TOTAL NUMBER OF POINT SOURCES/SINKS PRESENT IN THE FLOW MODEL =    62

 MAXIMUM STEPSIZE WHICH MEETS STABILITY CRITERION OF THE SINK & SOURCE TERM
 =  217.1    (WHEN MIN. R.F.=1)  AT K=   2, I=   1, J=   1

 MAXIMUM STEPSIZE WHICH MEETS STABILITY CRITERION OF THE DISPERSION TERM
 =  20.29    (WHEN MIN. R.F.=1)  AT K=   1, I=   1, J=  31
     1 CALLS TO GCG PACKAGE FOR TRANSPORT TIME STEP   3 IN FLOW TIME STEP 603 STRESS PERIOD   1
     6 TOTAL ITERATIONS
 
 SOLVING FOR HEAD 
 FLOW MODEL IS TRANSIENT
 FLOW MODEL CONTAINS CONSTANT-HEAD CELLS


 MAXIMUM STEPSIZE DURING WHICH ANY PARTICLE CANNOT MOVE MORE THAN ONE CELL
 =  5.926    (WHEN MIN. R.F.=1)  AT K=  28, I=   1, J=  52

 MAXIMUM STEPSIZE WHICH MEETS STABILITY CRITERION OF THE ADVECTION TERM
 (FOR PURE FINITE-DIFFERENCE OPTION, MIXELM=0) 
 =  3.821    (WHEN MIN. R.F.=1)  AT K=   2, I=   1, J=  43


 TOTAL NUMBER OF POINT SOURCES/SINKS PRESENT IN THE FLOW MODEL =    62

 MAXIMUM STEPSIZE WHICH MEETS STABILITY CRITERION OF THE SINK & SOURCE TERM
 =  217.4    (WHEN MIN. R.F.=1)  AT K=   2, I=   1, J=   1

 MAXIMUM STEPSIZE WHICH MEETS STABILITY CRITERION OF THE DISPERSION TERM
 =  20.29    (WHEN MIN. R.F.=1)  AT K=   1, I=   1, J=  31
     1 CALLS TO GCG PACKAGE FOR TRANSPORT TIME STEP   4 IN FLOW TIME STEP 603 STRESS PERIOD   1
     4 TOTAL ITERATIONS
  MAXIMUM CONCENTRATION CHANGES FOR EACH ITERATION:
  MAX. CHANGE LAYER,ROW,COL MAX. CHANGE LAYER,ROW,COL MAX. CHANGE LAYER,ROW,COL MAX. CHANGE LAYER,ROW,COL MAX. CHANGE LAYER,ROW,COL
 ------------------------------------------------------------------------------------------------------------------------------------
   0.1107E-01 (  2,  1, 83)  0.1795E-03 (  2,  1, 83)  0.3149E-05 (  2,  1, 84)  0.6942E-07 (  3,  1, 84)


                                          ================================================
                                                         FROM TIME =   6030.0     TO    6040.0    

 
 SOLVING FOR HEAD 
 FLOW MODEL IS TRANSIENT
 FLOW MODEL CONTAINS CONSTANT-HEAD CELLS


 MAXIMUM STEPSIZE DURING WHICH ANY PARTICLE CANNOT MOVE MORE THAN ONE CELL
 =  5.931    (WHEN MIN. R.F.=1)  AT K=  28, I=   1, J=  52

 MAXIMUM STEPSIZE WHICH MEETS STABILITY CRITERION OF THE ADVECTION TERM
 (FOR PURE FINITE-DIFFERENCE OPTION, MIXELM=0) 
 =  3.858    (WHEN MIN. R.F.=1)  AT K=   2, I=   1, J=  43


 TOTAL NUMBER OF POINT SOURCES/SINKS PRESENT IN THE FLOW MODEL =    62

 MAXIMUM STEPSIZE WHICH MEETS STABILITY CRITERION OF THE SINK & SOURCE TERM
 =  230.2    (WHEN MIN. R.F.=1)  AT K=   2, I=   1, J=   1

 MAXIMUM STEPSIZE WHICH MEETS STABILITY CRITERION OF THE DISPERSION TERM
 =  20.29    (WHEN MIN. R.F.=1)  AT K=   1, I=   1, J=  31


     1 CALLS TO GCG PACKAGE FOR TRANSPORT TIME STEP   1 IN FLOW TIME STEP 604 STRESS PERIOD   1
     6 TOTAL ITERATIONS

 NO OUTPUT CONTROL FOR STRESS PERIOD    1   TIME STEP 604
 
 SOLVING FOR HEAD 
 FLOW MODEL IS TRANSIENT
 FLOW MODEL CONTAINS CONSTANT-HEAD CELLS


 MAXIMUM STEPSIZE DURING WHICH ANY PARTICLE CANNOT MOVE MORE THAN ONE CELL
 =  5.769    (WHEN MIN. R.F.=1)  AT K=   4, I=   1, J=  74

 MAXIMUM STEPSIZE WHICH MEETS STABILITY CRITERION OF THE ADVECTION TERM
 (FOR PURE FINITE-DIFFERENCE OPTION, MIXELM=0) 
 =  4.069    (WHEN MIN. R.F.=1)  AT K=   2, I=   1, J=  43


 TOTAL NUMBER OF POINT SOURCES/SINKS PRESENT IN THE FLOW MODEL =    62

 MAXIMUM STEPSIZE WHICH MEETS STABILITY CRITERION OF THE SINK & SOURCE TERM
 =  219.8    (WHEN MIN. R.F.=1)  AT K=   2, I=   1, J=   1

 MAXIMUM STEPSIZE WHICH MEETS STABILITY CRITERION OF THE DISPERSION TERM
 =  20.29    (WHEN MIN. R.F.=1)  AT K=   1, I=   1, J=  31
     1 CALLS TO GCG PACKAGE FOR TRANSPORT TIME STEP   2 IN FLOW TIME STEP 604 STRESS PERIOD   1
     6 TOTAL ITERATIONS
 
 SOLVING FOR HEAD 
 FLOW MODEL IS TRANSIENT
 FLOW MODEL CONTAINS CONSTANT-HEAD CELLS


 MAXIMUM STEPSIZE DURING WHICH ANY PARTICLE CANNOT MOVE MORE THAN ONE CELL
 =  5.504    (WHEN MIN. R.F.=1)  AT K=   4, I=   1, J=  74

 MAXIMUM STEPSIZE WHICH MEETS STABILITY CRITERION OF THE ADVECTION TERM
 (FOR PURE FINITE-DIFFERENCE OPTION, MIXELM=0) 
 =  4.229    (WHEN MIN. R.F.=1)  AT K=   2, I=   1, J=  81


 TOTAL NUMBER OF POINT SOURCES/SINKS PRESENT IN THE FLOW MODEL =    62

 MAXIMUM STEPSIZE WHICH MEETS STABILITY CRITERION OF THE SINK & SOURCE TERM
 =  216.8    (WHEN MIN. R.F.=1)  AT K=   2, I=   1, J=   1

 MAXIMUM STEPSIZE WHICH MEETS STABILITY CRITERION OF THE DISPERSION TERM
 =  20.29    (WHEN MIN. R.F.=1)  AT K=   1, I=   1, J=  31
     1 CALLS TO GCG PACKAGE FOR TRANSPORT TIME STEP   3 IN FLOW TIME STEP 604 STRESS PERIOD   1
     6 TOTAL ITERATIONS
 
 SOLVING FOR HEAD 
 FLOW MODEL IS TRANSIENT
 FLOW MODEL CONTAINS CONSTANT-HEAD CELLS


 MAXIMUM STEPSIZE DURING WHICH ANY PARTICLE CANNOT MOVE MORE THAN ONE CELL
 =  5.287    (WHEN MIN. R.F.=1)  AT K=   4, I=   1, J=  74

 MAXIMUM STEPSIZE WHICH MEETS STABILITY CRITERION OF THE ADVECTION TERM
 (FOR PURE FINITE-DIFFERENCE OPTION, MIXELM=0) 
 =  3.995    (WHEN MIN. R.F.=1)  AT K=   2, I=   1, J=  81


 TOTAL NUMBER OF POINT SOURCES/SINKS PRESENT IN THE FLOW MODEL =    62

 MAXIMUM STEPSIZE WHICH MEETS STABILITY CRITERION OF THE SINK & SOURCE TERM
 =  216.6    (WHEN MIN. R.F.=1)  AT K=   2, I=   1, J=   1

 MAXIMUM STEPSIZE WHICH MEETS STABILITY CRITERION OF THE DISPERSION TERM
 =  20.29    (WHEN MIN. R.F.=1)  AT K=   1, I=   1, J=  31
     1 CALLS TO GCG PACKAGE FOR TRANSPORT TIME STEP   4 IN FLOW TIME STEP 604 STRESS PERIOD   1
     5 TOTAL ITERATIONS
  MAXIMUM CONCENTRATION CHANGES FOR EACH ITERATION:
  MAX. CHANGE LAYER,ROW,COL MAX. CHANGE LAYER,ROW,COL MAX. CHANGE LAYER,ROW,COL MAX. CHANGE LAYER,ROW,COL MAX. CHANGE LAYER,ROW,COL
 ------------------------------------------------------------------------------------------------------------------------------------
   0.1357E-01 (  2,  1, 76)  0.2754E-03 (  2,  1, 82)  0.6404E-05 (  2,  1, 83)  0.1900E-06 (  3,  1, 77)  0.3960E-08 (  3,  1, 33)


                                          ================================================
                                                         FROM TIME =   6040.0     TO    6050.0    

 
 SOLVING FOR HEAD 
 FLOW MODEL IS TRANSIENT
 FLOW MODEL CONTAINS CONSTANT-HEAD CELLS


 MAXIMUM STEPSIZE DURING WHICH ANY PARTICLE CANNOT MOVE MORE THAN ONE CELL
 =  5.219    (WHEN MIN. R.F.=1)  AT K=   4, I=   1, J=  74

 MAXIMUM STEPSIZE WHICH MEETS STABILITY CRITERION OF THE ADVECTION TERM
 (FOR PURE FINITE-DIFFERENCE OPTION, MIXELM=0) 
 =  3.961    (WHEN MIN. R.F.=1)  AT K=   2, I=   1, J=  81


 TOTAL NUMBER OF POINT SOURCES/SINKS PRESENT IN THE FLOW MODEL =    62

 MAXIMUM STEPSIZE WHICH MEETS STABILITY CRITERION OF THE SINK & SOURCE TERM
 =  225.7    (WHEN MIN. R.F.=1)  AT K=   2, I=   1, J=   1

 MAXIMUM STEPSIZE WHICH MEETS STABILITY CRITERION OF THE DISPERSION TERM
 =  20.29    (WHEN MIN. R.F.=1)  AT K=   1, I=   1, J=  31


     1 CALLS TO GCG PACKAGE FOR TRANSPORT TIME STEP   1 IN FLOW TIME STEP 605 STRESS PERIOD   1
     6 TOTAL ITERATIONS

 NO OUTPUT CONTROL FOR STRESS PERIOD    1   TIME STEP 605
 
 SOLVING FOR HEAD 
 FLOW MODEL IS TRANSIENT
 FLOW MODEL CONTAINS CONSTANT-HEAD CELLS


 MAXIMUM STEPSIZE DURING WHICH ANY PARTICLE CANNOT MOVE MORE THAN ONE CELL
 =  5.086    (WHEN MIN. R.F.=1)  AT K=   4, I=   1, J=  74

 MAXIMUM STEPSIZE WHICH MEETS STABILITY CRITERION OF THE ADVECTION TERM
 (FOR PURE FINITE-DIFFERENCE OPTION, MIXELM=0) 
 =  3.965    (WHEN MIN. R.F.=1)  AT K=   2, I=   1, J=  44


 TOTAL NUMBER OF POINT SOURCES/SINKS PRESENT IN THE FLOW MODEL =    62

 MAXIMUM STEPSIZE WHICH MEETS STABILITY CRITERION OF THE SINK & SOURCE TERM
 =  215.8    (WHEN MIN. R.F.=1)  AT K=   2, I=   1, J=   1

 MAXIMUM STEPSIZE WHICH MEETS STABILITY CRITERION OF THE DISPERSION TERM
 =  20.29    (WHEN MIN. R.F.=1)  AT K=   1, I=   1, J=  31
     1 CALLS TO GCG PACKAGE FOR TRANSPORT TIME STEP   2 IN FLOW TIME STEP 605 STRESS PERIOD   1
     6 TOTAL ITERATIONS
 
 SOLVING FOR HEAD 
 FLOW MODEL IS TRANSIENT
 FLOW MODEL CONTAINS CONSTANT-HEAD CELLS


 MAXIMUM STEPSIZE DURING WHICH ANY PARTICLE CANNOT MOVE MORE THAN ONE CELL
 =  5.001    (WHEN MIN. R.F.=1)  AT K=   4, I=   1, J=  74

 MAXIMUM STEPSIZE WHICH MEETS STABILITY CRITERION OF THE ADVECTION TERM
 (FOR PURE FINITE-DIFFERENCE OPTION, MIXELM=0) 
 =  4.056    (WHEN MIN. R.F.=1)  AT K=   2, I=   1, J=  80


 TOTAL NUMBER OF POINT SOURCES/SINKS PRESENT IN THE FLOW MODEL =    62

 MAXIMUM STEPSIZE WHICH MEETS STABILITY CRITERION OF THE SINK & SOURCE TERM
 =  214.2    (WHEN MIN. R.F.=1)  AT K=   2, I=   1, J=   1

 MAXIMUM STEPSIZE WHICH MEETS STABILITY CRITERION OF THE DISPERSION TERM
 =  20.29    (WHEN MIN. R.F.=1)  AT K=   1, I=   1, J=  31
     1 CALLS TO GCG PACKAGE FOR TRANSPORT TIME STEP   3 IN FLOW TIME STEP 605 STRESS PERIOD   1
     6 TOTAL ITERATIONS
 
 SOLVING FOR HEAD 
 FLOW MODEL IS TRANSIENT
 FLOW MODEL CONTAINS CONSTANT-HEAD CELLS


 MAXIMUM STEPSIZE DURING WHICH ANY PARTICLE CANNOT MOVE MORE THAN ONE CELL
 =  4.964    (WHEN MIN. R.F.=1)  AT K=   4, I=   1, J=  74

 MAXIMUM STEPSIZE WHICH MEETS STABILITY CRITERION OF THE ADVECTION TERM
 (FOR PURE FINITE-DIFFERENCE OPTION, MIXELM=0) 
 =  3.741    (WHEN MIN. R.F.=1)  AT K=   2, I=   1, J=  80


 TOTAL NUMBER OF POINT SOURCES/SINKS PRESENT IN THE FLOW MODEL =    62

 MAXIMUM STEPSIZE WHICH MEETS STABILITY CRITERION OF THE SINK & SOURCE TERM
 =  214.0    (WHEN MIN. R.F.=1)  AT K=   2, I=   1, J=   1

 MAXIMUM STEPSIZE WHICH MEETS STABILITY CRITERION OF THE DISPERSION TERM
 =  20.29    (WHEN MIN. R.F.=1)  AT K=   1, I=   1, J=  31
     1 CALLS TO GCG PACKAGE FOR TRANSPORT TIME STEP   4 IN FLOW TIME STEP 605 STRESS PERIOD   1
     5 TOTAL ITERATIONS
  MAXIMUM CONCENTRATION CHANGES FOR EACH ITERATION:
  MAX. CHANGE LAYER,ROW,COL MAX. CHANGE LAYER,ROW,COL MAX. CHANGE LAYER,ROW,COL MAX. CHANGE LAYER,ROW,COL MAX. CHANGE LAYER,ROW,COL
 ------------------------------------------------------------------------------------------------------------------------------------
   0.1171E-01 (  2,  1, 43)  0.1932E-03 (  2,  1, 46)  0.3749E-05 (  2,  1, 42)  0.1187E-06 (  3,  1, 77)  0.2315E-08 (  4,  1, 46)


                                          ================================================
                                                         FROM TIME =   6050.0     TO    6060.0    

 
 SOLVING FOR HEAD 
 FLOW MODEL IS TRANSIENT
 FLOW MODEL CONTAINS CONSTANT-HEAD CELLS


 MAXIMUM STEPSIZE DURING WHICH ANY PARTICLE CANNOT MOVE MORE THAN ONE CELL
 =  4.963    (WHEN MIN. R.F.=1)  AT K=   4, I=   1, J=  74

 MAXIMUM STEPSIZE WHICH MEETS STABILITY CRITERION OF THE ADVECTION TERM
 (FOR PURE FINITE-DIFFERENCE OPTION, MIXELM=0) 
 =  3.697    (WHEN MIN. R.F.=1)  AT K=   2, I=   1, J=  80


 TOTAL NUMBER OF POINT SOURCES/SINKS PRESENT IN THE FLOW MODEL =    62

 MAXIMUM STEPSIZE WHICH MEETS STABILITY CRITERION OF THE SINK & SOURCE TERM
 =  221.9    (WHEN MIN. R.F.=1)  AT K=   2, I=   1, J=   1

 MAXIMUM STEPSIZE WHICH MEETS STABILITY CRITERION OF THE DISPERSION TERM
 =  20.29    (WHEN MIN. R.F.=1)  AT K=   1, I=   1, J=  31


     1 CALLS TO GCG PACKAGE FOR TRANSPORT TIME STEP   1 IN FLOW TIME STEP 606 STRESS PERIOD   1
     6 TOTAL ITERATIONS

 NO OUTPUT CONTROL FOR STRESS PERIOD    1   TIME STEP 606
 
 SOLVING FOR HEAD 
 FLOW MODEL IS TRANSIENT
 FLOW MODEL CONTAINS CONSTANT-HEAD CELLS


 MAXIMUM STEPSIZE DURING WHICH ANY PARTICLE CANNOT MOVE MORE THAN ONE CELL
 =  4.985    (WHEN MIN. R.F.=1)  AT K=   4, I=   1, J=  74

 MAXIMUM STEPSIZE WHICH MEETS STABILITY CRITERION OF THE ADVECTION TERM
 (FOR PURE FINITE-DIFFERENCE OPTION, MIXELM=0) 
 =  3.651    (WHEN MIN. R.F.=1)  AT K=   2, I=   1, J=  80


 TOTAL NUMBER OF POINT SOURCES/SINKS PRESENT IN THE FLOW MODEL =    62

 MAXIMUM STEPSIZE WHICH MEETS STABILITY CRITERION OF THE SINK & SOURCE TERM
 =  212.8    (WHEN MIN. R.F.=1)  AT K=   2, I=   1, J=   1

 MAXIMUM STEPSIZE WHICH MEETS STABILITY CRITERION OF THE DISPERSION TERM
 =  20.29    (WHEN MIN. R.F.=1)  AT K=   1, I=   1, J=  31
     1 CALLS TO GCG PACKAGE FOR TRANSPORT TIME STEP   2 IN FLOW TIME STEP 606 STRESS PERIOD   1
     6 TOTAL ITERATIONS
 
 SOLVING FOR HEAD 
 FLOW MODEL IS TRANSIENT
 FLOW MODEL CONTAINS CONSTANT-HEAD CELLS


 MAXIMUM STEPSIZE DURING WHICH ANY PARTICLE CANNOT MOVE MORE THAN ONE CELL
 =  5.051    (WHEN MIN. R.F.=1)  AT K=   4, I=   1, J=  74

 MAXIMUM STEPSIZE WHICH MEETS STABILITY CRITERION OF THE ADVECTION TERM
 (FOR PURE FINITE-DIFFERENCE OPTION, MIXELM=0) 
 =  3.796    (WHEN MIN. R.F.=1)  AT K=   2, I=   1, J=  80


 TOTAL NUMBER OF POINT SOURCES/SINKS PRESENT IN THE FLOW MODEL =    62

 MAXIMUM STEPSIZE WHICH MEETS STABILITY CRITERION OF THE SINK & SOURCE TERM
 =  214.8    (WHEN MIN. R.F.=1)  AT K=   2, I=   1, J=   1

 MAXIMUM STEPSIZE WHICH MEETS STABILITY CRITERION OF THE DISPERSION TERM
 =  20.29    (WHEN MIN. R.F.=1)  AT K=   1, I=   1, J=  31
     1 CALLS TO GCG PACKAGE FOR TRANSPORT TIME STEP   3 IN FLOW TIME STEP 606 STRESS PERIOD   1
     6 TOTAL ITERATIONS
 
 SOLVING FOR HEAD 
 FLOW MODEL IS TRANSIENT
 FLOW MODEL CONTAINS CONSTANT-HEAD CELLS


 MAXIMUM STEPSIZE DURING WHICH ANY PARTICLE CANNOT MOVE MORE THAN ONE CELL
 =  5.098    (WHEN MIN. R.F.=1)  AT K=   5, I=   1, J=  74

 MAXIMUM STEPSIZE WHICH MEETS STABILITY CRITERION OF THE ADVECTION TERM
 (FOR PURE FINITE-DIFFERENCE OPTION, MIXELM=0) 
 =  3.892    (WHEN MIN. R.F.=1)  AT K=   2, I=   1, J=  79


 TOTAL NUMBER OF POINT SOURCES/SINKS PRESENT IN THE FLOW MODEL =    62

 MAXIMUM STEPSIZE WHICH MEETS STABILITY CRITERION OF THE SINK & SOURCE TERM
 =  215.1    (WHEN MIN. R.F.=1)  AT K=   2, I=   1, J=   1

 MAXIMUM STEPSIZE WHICH MEETS STABILITY CRITERION OF THE DISPERSION TERM
 =  20.29    (WHEN MIN. R.F.=1)  AT K=   1, I=   1, J=  31
     1 CALLS TO GCG PACKAGE FOR TRANSPORT TIME STEP   4 IN FLOW TIME STEP 606 STRESS PERIOD   1
     5 TOTAL ITERATIONS
  MAXIMUM CONCENTRATION CHANGES FOR EACH ITERATION:
  MAX. CHANGE LAYER,ROW,COL MAX. CHANGE LAYER,ROW,COL MAX. CHANGE LAYER,ROW,COL MAX. CHANGE LAYER,ROW,COL MAX. CHANGE LAYER,ROW,COL
 ------------------------------------------------------------------------------------------------------------------------------------
   0.2019E-01 (  2,  1, 81)  0.5369E-03 (  2,  1, 79)  0.2100E-04 (  3,  1, 79)  0.6832E-06 (  3,  1, 76)  0.1960E-07 (  4,  1, 78)


                                          ================================================
                                                         FROM TIME =   6060.0     TO    6070.0    

 
 SOLVING FOR HEAD 
 FLOW MODEL IS TRANSIENT
 FLOW MODEL CONTAINS CONSTANT-HEAD CELLS


 MAXIMUM STEPSIZE DURING WHICH ANY PARTICLE CANNOT MOVE MORE THAN ONE CELL
 =  5.142    (WHEN MIN. R.F.=1)  AT K=   5, I=   1, J=  74

 MAXIMUM STEPSIZE WHICH MEETS STABILITY CRITERION OF THE ADVECTION TERM
 (FOR PURE FINITE-DIFFERENCE OPTION, MIXELM=0) 
 =  3.733    (WHEN MIN. R.F.=1)  AT K=   2, I=   1, J=  79


 TOTAL NUMBER OF POINT SOURCES/SINKS PRESENT IN THE FLOW MODEL =    62

 MAXIMUM STEPSIZE WHICH MEETS STABILITY CRITERION OF THE SINK & SOURCE TERM
 =  215.9    (WHEN MIN. R.F.=1)  AT K=   2, I=   1, J=   1

 MAXIMUM STEPSIZE WHICH MEETS STABILITY CRITERION OF THE DISPERSION TERM
 =  20.29    (WHEN MIN. R.F.=1)  AT K=   1, I=   1, J=  31


     1 CALLS TO GCG PACKAGE FOR TRANSPORT TIME STEP   1 IN FLOW TIME STEP 607 STRESS PERIOD   1
     6 TOTAL ITERATIONS

 NO OUTPUT CONTROL FOR STRESS PERIOD    1   TIME STEP 607
 
 SOLVING FOR HEAD 
 FLOW MODEL IS TRANSIENT
 FLOW MODEL CONTAINS CONSTANT-HEAD CELLS


 MAXIMUM STEPSIZE DURING WHICH ANY PARTICLE CANNOT MOVE MORE THAN ONE CELL
 =  5.241    (WHEN MIN. R.F.=1)  AT K=   5, I=   1, J=  74

 MAXIMUM STEPSIZE WHICH MEETS STABILITY CRITERION OF THE ADVECTION TERM
 (FOR PURE FINITE-DIFFERENCE OPTION, MIXELM=0) 
 =  3.584    (WHEN MIN. R.F.=1)  AT K=   2, I=   1, J=  79


 TOTAL NUMBER OF POINT SOURCES/SINKS PRESENT IN THE FLOW MODEL =    62

 MAXIMUM STEPSIZE WHICH MEETS STABILITY CRITERION OF THE SINK & SOURCE TERM
 =  210.7    (WHEN MIN. R.F.=1)  AT K=   2, I=   1, J=   1

 MAXIMUM STEPSIZE WHICH MEETS STABILITY CRITERION OF THE DISPERSION TERM
 =  20.29    (WHEN MIN. R.F.=1)  AT K=   1, I=   1, J=  31
     1 CALLS TO GCG PACKAGE FOR TRANSPORT TIME STEP   2 IN FLOW TIME STEP 607 STRESS PERIOD   1
     6 TOTAL ITERATIONS
 
 SOLVING FOR HEAD 
 FLOW MODEL IS TRANSIENT
 FLOW MODEL CONTAINS CONSTANT-HEAD CELLS


 MAXIMUM STEPSIZE DURING WHICH ANY PARTICLE CANNOT MOVE MORE THAN ONE CELL
 =  5.369    (WHEN MIN. R.F.=1)  AT K=   5, I=   1, J=  74

 MAXIMUM STEPSIZE WHICH MEETS STABILITY CRITERION OF THE ADVECTION TERM
 (FOR PURE FINITE-DIFFERENCE OPTION, MIXELM=0) 
 =  3.583    (WHEN MIN. R.F.=1)  AT K=   2, I=   1, J=  79


 TOTAL NUMBER OF POINT SOURCES/SINKS PRESENT IN THE FLOW MODEL =    62

 MAXIMUM STEPSIZE WHICH MEETS STABILITY CRITERION OF THE SINK & SOURCE TERM
 =  211.0    (WHEN MIN. R.F.=1)  AT K=   2, I=   1, J=   1

 MAXIMUM STEPSIZE WHICH MEETS STABILITY CRITERION OF THE DISPERSION TERM
 =  20.29    (WHEN MIN. R.F.=1)  AT K=   1, I=   1, J=  31
     1 CALLS TO GCG PACKAGE FOR TRANSPORT TIME STEP   3 IN FLOW TIME STEP 607 STRESS PERIOD   1
     6 TOTAL ITERATIONS
 
 SOLVING FOR HEAD 
 FLOW MODEL IS TRANSIENT
 FLOW MODEL CONTAINS CONSTANT-HEAD CELLS


 MAXIMUM STEPSIZE DURING WHICH ANY PARTICLE CANNOT MOVE MORE THAN ONE CELL
 =  5.475    (WHEN MIN. R.F.=1)  AT K=   6, I=   1, J=  74

 MAXIMUM STEPSIZE WHICH MEETS STABILITY CRITERION OF THE ADVECTION TERM
 (FOR PURE FINITE-DIFFERENCE OPTION, MIXELM=0) 
 =  3.711    (WHEN MIN. R.F.=1)  AT K=   2, I=   1, J=  79


 TOTAL NUMBER OF POINT SOURCES/SINKS PRESENT IN THE FLOW MODEL =    62

 MAXIMUM STEPSIZE WHICH MEETS STABILITY CRITERION OF THE SINK & SOURCE TERM
 =  211.1    (WHEN MIN. R.F.=1)  AT K=   2, I=   1, J=   1

 MAXIMUM STEPSIZE WHICH MEETS STABILITY CRITERION OF THE DISPERSION TERM
 =  20.29    (WHEN MIN. R.F.=1)  AT K=   1, I=   1, J=  31
     1 CALLS TO GCG PACKAGE FOR TRANSPORT TIME STEP   4 IN FLOW TIME STEP 607 STRESS PERIOD   1
     5 TOTAL ITERATIONS
  MAXIMUM CONCENTRATION CHANGES FOR EACH ITERATION:
  MAX. CHANGE LAYER,ROW,COL MAX. CHANGE LAYER,ROW,COL MAX. CHANGE LAYER,ROW,COL MAX. CHANGE LAYER,ROW,COL MAX. CHANGE LAYER,ROW,COL
 ------------------------------------------------------------------------------------------------------------------------------------
   0.1973E-01 (  2,  1, 80)  0.4531E-03 (  2,  1, 78)  0.1953E-04 (  3,  1, 78)  0.7652E-06 (  3,  1, 76)  0.1763E-07 (  4,  1, 76)


                                          ================================================
                                                         FROM TIME =   6070.0     TO    6080.0    

 
 SOLVING FOR HEAD 
 FLOW MODEL IS TRANSIENT
 FLOW MODEL CONTAINS CONSTANT-HEAD CELLS


 MAXIMUM STEPSIZE DURING WHICH ANY PARTICLE CANNOT MOVE MORE THAN ONE CELL
 =  5.542    (WHEN MIN. R.F.=1)  AT K=   6, I=   1, J=  74

 MAXIMUM STEPSIZE WHICH MEETS STABILITY CRITERION OF THE ADVECTION TERM
 (FOR PURE FINITE-DIFFERENCE OPTION, MIXELM=0) 
 =  3.892    (WHEN MIN. R.F.=1)  AT K=   2, I=   1, J=  79


 TOTAL NUMBER OF POINT SOURCES/SINKS PRESENT IN THE FLOW MODEL =    62

 MAXIMUM STEPSIZE WHICH MEETS STABILITY CRITERION OF THE SINK & SOURCE TERM
 =  212.9    (WHEN MIN. R.F.=1)  AT K=   2, I=   1, J=   1

 MAXIMUM STEPSIZE WHICH MEETS STABILITY CRITERION OF THE DISPERSION TERM
 =  20.29    (WHEN MIN. R.F.=1)  AT K=   1, I=   1, J=  31


     1 CALLS TO GCG PACKAGE FOR TRANSPORT TIME STEP   1 IN FLOW TIME STEP 608 STRESS PERIOD   1
     6 TOTAL ITERATIONS

 NO OUTPUT CONTROL FOR STRESS PERIOD    1   TIME STEP 608
 
 SOLVING FOR HEAD 
 FLOW MODEL IS TRANSIENT
 FLOW MODEL CONTAINS CONSTANT-HEAD CELLS


 MAXIMUM STEPSIZE DURING WHICH ANY PARTICLE CANNOT MOVE MORE THAN ONE CELL
 =  5.681    (WHEN MIN. R.F.=1)  AT K=   6, I=   1, J=  74

 MAXIMUM STEPSIZE WHICH MEETS STABILITY CRITERION OF THE ADVECTION TERM
 (FOR PURE FINITE-DIFFERENCE OPTION, MIXELM=0) 
 =  3.939    (WHEN MIN. R.F.=1)  AT K=   2, I=   1, J=  78


 TOTAL NUMBER OF POINT SOURCES/SINKS PRESENT IN THE FLOW MODEL =    62

 MAXIMUM STEPSIZE WHICH MEETS STABILITY CRITERION OF THE SINK & SOURCE TERM
 =  206.8    (WHEN MIN. R.F.=1)  AT K=   2, I=   1, J=   1

 MAXIMUM STEPSIZE WHICH MEETS STABILITY CRITERION OF THE DISPERSION TERM
 =  20.29    (WHEN MIN. R.F.=1)  AT K=   1, I=   1, J=  31
     1 CALLS TO GCG PACKAGE FOR TRANSPORT TIME STEP   2 IN FLOW TIME STEP 608 STRESS PERIOD   1
     6 TOTAL ITERATIONS
 
 SOLVING FOR HEAD 
 FLOW MODEL IS TRANSIENT
 FLOW MODEL CONTAINS CONSTANT-HEAD CELLS


 MAXIMUM STEPSIZE DURING WHICH ANY PARTICLE CANNOT MOVE MORE THAN ONE CELL
 =  5.827    (WHEN MIN. R.F.=1)  AT K=   7, I=   1, J=  74

 MAXIMUM STEPSIZE WHICH MEETS STABILITY CRITERION OF THE ADVECTION TERM
 (FOR PURE FINITE-DIFFERENCE OPTION, MIXELM=0) 
 =  3.723    (WHEN MIN. R.F.=1)  AT K=   2, I=   1, J=  78


 TOTAL NUMBER OF POINT SOURCES/SINKS PRESENT IN THE FLOW MODEL =    62

 MAXIMUM STEPSIZE WHICH MEETS STABILITY CRITERION OF THE SINK & SOURCE TERM
 =  205.6    (WHEN MIN. R.F.=1)  AT K=   2, I=   1, J=   1

 MAXIMUM STEPSIZE WHICH MEETS STABILITY CRITERION OF THE DISPERSION TERM
 =  20.29    (WHEN MIN. R.F.=1)  AT K=   1, I=   1, J=  31
     1 CALLS TO GCG PACKAGE FOR TRANSPORT TIME STEP   3 IN FLOW TIME STEP 608 STRESS PERIOD   1
     6 TOTAL ITERATIONS
 
 SOLVING FOR HEAD 
 FLOW MODEL IS TRANSIENT
 FLOW MODEL CONTAINS CONSTANT-HEAD CELLS


 MAXIMUM STEPSIZE DURING WHICH ANY PARTICLE CANNOT MOVE MORE THAN ONE CELL
 =  5.932    (WHEN MIN. R.F.=1)  AT K=  28, I=   1, J=  52

 MAXIMUM STEPSIZE WHICH MEETS STABILITY CRITERION OF THE ADVECTION TERM
 (FOR PURE FINITE-DIFFERENCE OPTION, MIXELM=0) 
 =  3.666    (WHEN MIN. R.F.=1)  AT K=   2, I=   1, J=  78


 TOTAL NUMBER OF POINT SOURCES/SINKS PRESENT IN THE FLOW MODEL =    62

 MAXIMUM STEPSIZE WHICH MEETS STABILITY CRITERION OF THE SINK & SOURCE TERM
 =  205.8    (WHEN MIN. R.F.=1)  AT K=   2, I=   1, J=   1

 MAXIMUM STEPSIZE WHICH MEETS STABILITY CRITERION OF THE DISPERSION TERM
 =  20.29    (WHEN MIN. R.F.=1)  AT K=   1, I=   1, J=  31
     1 CALLS TO GCG PACKAGE FOR TRANSPORT TIME STEP   4 IN FLOW TIME STEP 608 STRESS PERIOD   1
     5 TOTAL ITERATIONS
  MAXIMUM CONCENTRATION CHANGES FOR EACH ITERATION:
  MAX. CHANGE LAYER,ROW,COL MAX. CHANGE LAYER,ROW,COL MAX. CHANGE LAYER,ROW,COL MAX. CHANGE LAYER,ROW,COL MAX. CHANGE LAYER,ROW,COL
 ------------------------------------------------------------------------------------------------------------------------------------
   0.1547E-01 (  2,  1, 38)  0.3412E-03 (  2,  1, 79)  0.8960E-05 (  2,  1, 80)  0.2755E-06 (  3,  1, 80)  0.7734E-08 (  3,  1, 77)


                                          ================================================
                                                         FROM TIME =   6080.0     TO    6090.0    

 
 SOLVING FOR HEAD 
 FLOW MODEL IS TRANSIENT
 FLOW MODEL CONTAINS CONSTANT-HEAD CELLS


 MAXIMUM STEPSIZE DURING WHICH ANY PARTICLE CANNOT MOVE MORE THAN ONE CELL
 =  5.858    (WHEN MIN. R.F.=1)  AT K=   4, I=   1, J=  47

 MAXIMUM STEPSIZE WHICH MEETS STABILITY CRITERION OF THE ADVECTION TERM
 (FOR PURE FINITE-DIFFERENCE OPTION, MIXELM=0) 
 =  3.688    (WHEN MIN. R.F.=1)  AT K=   2, I=   1, J=  78


 TOTAL NUMBER OF POINT SOURCES/SINKS PRESENT IN THE FLOW MODEL =    62

 MAXIMUM STEPSIZE WHICH MEETS STABILITY CRITERION OF THE SINK & SOURCE TERM
 =  217.9    (WHEN MIN. R.F.=1)  AT K=   2, I=   1, J=   1

 MAXIMUM STEPSIZE WHICH MEETS STABILITY CRITERION OF THE DISPERSION TERM
 =  20.29    (WHEN MIN. R.F.=1)  AT K=   1, I=   1, J=  31


     1 CALLS TO GCG PACKAGE FOR TRANSPORT TIME STEP   1 IN FLOW TIME STEP 609 STRESS PERIOD   1
     6 TOTAL ITERATIONS

 NO OUTPUT CONTROL FOR STRESS PERIOD    1   TIME STEP 609
 
 SOLVING FOR HEAD 
 FLOW MODEL IS TRANSIENT
 FLOW MODEL CONTAINS CONSTANT-HEAD CELLS


 MAXIMUM STEPSIZE DURING WHICH ANY PARTICLE CANNOT MOVE MORE THAN ONE CELL
 =  5.548    (WHEN MIN. R.F.=1)  AT K=   4, I=   1, J=  47

 MAXIMUM STEPSIZE WHICH MEETS STABILITY CRITERION OF THE ADVECTION TERM
 (FOR PURE FINITE-DIFFERENCE OPTION, MIXELM=0) 
 =  3.805    (WHEN MIN. R.F.=1)  AT K=   2, I=   1, J=  78


 TOTAL NUMBER OF POINT SOURCES/SINKS PRESENT IN THE FLOW MODEL =    62

 MAXIMUM STEPSIZE WHICH MEETS STABILITY CRITERION OF THE SINK & SOURCE TERM
 =  212.3    (WHEN MIN. R.F.=1)  AT K=   2, I=   1, J=   1

 MAXIMUM STEPSIZE WHICH MEETS STABILITY CRITERION OF THE DISPERSION TERM
 =  20.29    (WHEN MIN. R.F.=1)  AT K=   1, I=   1, J=  31
     1 CALLS TO GCG PACKAGE FOR TRANSPORT TIME STEP   2 IN FLOW TIME STEP 609 STRESS PERIOD   1
     6 TOTAL ITERATIONS
 
 SOLVING FOR HEAD 
 FLOW MODEL IS TRANSIENT
 FLOW MODEL CONTAINS CONSTANT-HEAD CELLS


 MAXIMUM STEPSIZE DURING WHICH ANY PARTICLE CANNOT MOVE MORE THAN ONE CELL
 =  5.321    (WHEN MIN. R.F.=1)  AT K=   4, I=   1, J=  47

 MAXIMUM STEPSIZE WHICH MEETS STABILITY CRITERION OF THE ADVECTION TERM
 (FOR PURE FINITE-DIFFERENCE OPTION, MIXELM=0) 
 =  4.032    (WHEN MIN. R.F.=1)  AT K=   2, I=   1, J=  40


 TOTAL NUMBER OF POINT SOURCES/SINKS PRESENT IN THE FLOW MODEL =    62

 MAXIMUM STEPSIZE WHICH MEETS STABILITY CRITERION OF THE SINK & SOURCE TERM
 =  212.1    (WHEN MIN. R.F.=1)  AT K=   2, I=   1, J=   1

 MAXIMUM STEPSIZE WHICH MEETS STABILITY CRITERION OF THE DISPERSION TERM
 =  20.29    (WHEN MIN. R.F.=1)  AT K=   1, I=   1, J=  31
     1 CALLS TO GCG PACKAGE FOR TRANSPORT TIME STEP   3 IN FLOW TIME STEP 609 STRESS PERIOD   1
     6 TOTAL ITERATIONS
 
 SOLVING FOR HEAD 
 FLOW MODEL IS TRANSIENT
 FLOW MODEL CONTAINS CONSTANT-HEAD CELLS


 MAXIMUM STEPSIZE DURING WHICH ANY PARTICLE CANNOT MOVE MORE THAN ONE CELL
 =  5.172    (WHEN MIN. R.F.=1)  AT K=   4, I=   1, J=  47

 MAXIMUM STEPSIZE WHICH MEETS STABILITY CRITERION OF THE ADVECTION TERM
 (FOR PURE FINITE-DIFFERENCE OPTION, MIXELM=0) 
 =  4.100    (WHEN MIN. R.F.=1)  AT K=   2, I=   1, J=  40


 TOTAL NUMBER OF POINT SOURCES/SINKS PRESENT IN THE FLOW MODEL =    62

 MAXIMUM STEPSIZE WHICH MEETS STABILITY CRITERION OF THE SINK & SOURCE TERM
 =  210.1    (WHEN MIN. R.F.=1)  AT K=   2, I=   1, J=   1

 MAXIMUM STEPSIZE WHICH MEETS STABILITY CRITERION OF THE DISPERSION TERM
 =  20.29    (WHEN MIN. R.F.=1)  AT K=   1, I=   1, J=  31
     1 CALLS TO GCG PACKAGE FOR TRANSPORT TIME STEP   4 IN FLOW TIME STEP 609 STRESS PERIOD   1
     5 TOTAL ITERATIONS
  MAXIMUM CONCENTRATION CHANGES FOR EACH ITERATION:
  MAX. CHANGE LAYER,ROW,COL MAX. CHANGE LAYER,ROW,COL MAX. CHANGE LAYER,ROW,COL MAX. CHANGE LAYER,ROW,COL MAX. CHANGE LAYER,ROW,COL
 ------------------------------------------------------------------------------------------------------------------------------------
   0.1885E-01 (  2,  1, 39)  0.5966E-03 (  2,  1, 77)  0.1779E-04 (  3,  1, 77)  0.4972E-06 (  4,  1, 41)  0.1763E-07 (  3,  1, 88)


                                          ================================================
                                                         FROM TIME =   6090.0     TO    6100.0    

 
 SOLVING FOR HEAD 
 FLOW MODEL IS TRANSIENT
 FLOW MODEL CONTAINS CONSTANT-HEAD CELLS


 MAXIMUM STEPSIZE DURING WHICH ANY PARTICLE CANNOT MOVE MORE THAN ONE CELL
 =  5.124    (WHEN MIN. R.F.=1)  AT K=   4, I=   1, J=  47

 MAXIMUM STEPSIZE WHICH MEETS STABILITY CRITERION OF THE ADVECTION TERM
 (FOR PURE FINITE-DIFFERENCE OPTION, MIXELM=0) 
 =  3.999    (WHEN MIN. R.F.=1)  AT K=   2, I=   1, J=  77


 TOTAL NUMBER OF POINT SOURCES/SINKS PRESENT IN THE FLOW MODEL =    62

 MAXIMUM STEPSIZE WHICH MEETS STABILITY CRITERION OF THE SINK & SOURCE TERM
 =  210.1    (WHEN MIN. R.F.=1)  AT K=   2, I=   1, J=   1

 MAXIMUM STEPSIZE WHICH MEETS STABILITY CRITERION OF THE DISPERSION TERM
 =  20.29    (WHEN MIN. R.F.=1)  AT K=   1, I=   1, J=  31


     1 CALLS TO GCG PACKAGE FOR TRANSPORT TIME STEP   1 IN FLOW TIME STEP 610 STRESS PERIOD   1
     6 TOTAL ITERATIONS

 NO OUTPUT CONTROL FOR STRESS PERIOD    1   TIME STEP 610
 
 SOLVING FOR HEAD 
 FLOW MODEL IS TRANSIENT
 FLOW MODEL CONTAINS CONSTANT-HEAD CELLS


 MAXIMUM STEPSIZE DURING WHICH ANY PARTICLE CANNOT MOVE MORE THAN ONE CELL
 =  5.095    (WHEN MIN. R.F.=1)  AT K=   4, I=   1, J=  47

 MAXIMUM STEPSIZE WHICH MEETS STABILITY CRITERION OF THE ADVECTION TERM
 (FOR PURE FINITE-DIFFERENCE OPTION, MIXELM=0) 
 =  3.864    (WHEN MIN. R.F.=1)  AT K=   2, I=   1, J=  77


 TOTAL NUMBER OF POINT SOURCES/SINKS PRESENT IN THE FLOW MODEL =    62

 MAXIMUM STEPSIZE WHICH MEETS STABILITY CRITERION OF THE SINK & SOURCE TERM
 =  206.0    (WHEN MIN. R.F.=1)  AT K=   2, I=   1, J=   1

 MAXIMUM STEPSIZE WHICH MEETS STABILITY CRITERION OF THE DISPERSION TERM
 =  20.29    (WHEN MIN. R.F.=1)  AT K=   1, I=   1, J=  31
     1 CALLS TO GCG PACKAGE FOR TRANSPORT TIME STEP   2 IN FLOW TIME STEP 610 STRESS PERIOD   1
     6 TOTAL ITERATIONS
 
 SOLVING FOR HEAD 
 FLOW MODEL IS TRANSIENT
 FLOW MODEL CONTAINS CONSTANT-HEAD CELLS


 MAXIMUM STEPSIZE DURING WHICH ANY PARTICLE CANNOT MOVE MORE THAN ONE CELL
 =  5.141    (WHEN MIN. R.F.=1)  AT K=   4, I=   1, J=  47

 MAXIMUM STEPSIZE WHICH MEETS STABILITY CRITERION OF THE ADVECTION TERM
 (FOR PURE FINITE-DIFFERENCE OPTION, MIXELM=0) 
 =  3.797    (WHEN MIN. R.F.=1)  AT K=   2, I=   1, J=  41


 TOTAL NUMBER OF POINT SOURCES/SINKS PRESENT IN THE FLOW MODEL =    62

 MAXIMUM STEPSIZE WHICH MEETS STABILITY CRITERION OF THE SINK & SOURCE TERM
 =  215.0    (WHEN MIN. R.F.=1)  AT K=   2, I=   1, J=   1

 MAXIMUM STEPSIZE WHICH MEETS STABILITY CRITERION OF THE DISPERSION TERM
 =  20.29    (WHEN MIN. R.F.=1)  AT K=   1, I=   1, J=  31
     1 CALLS TO GCG PACKAGE FOR TRANSPORT TIME STEP   3 IN FLOW TIME STEP 610 STRESS PERIOD   1
     6 TOTAL ITERATIONS
 
 SOLVING FOR HEAD 
 FLOW MODEL IS TRANSIENT
 FLOW MODEL CONTAINS CONSTANT-HEAD CELLS


 MAXIMUM STEPSIZE DURING WHICH ANY PARTICLE CANNOT MOVE MORE THAN ONE CELL
 =  5.206    (WHEN MIN. R.F.=1)  AT K=   5, I=   1, J=  47

 MAXIMUM STEPSIZE WHICH MEETS STABILITY CRITERION OF THE ADVECTION TERM
 (FOR PURE FINITE-DIFFERENCE OPTION, MIXELM=0) 
 =  3.793    (WHEN MIN. R.F.=1)  AT K=   2, I=   1, J=  41


 TOTAL NUMBER OF POINT SOURCES/SINKS PRESENT IN THE FLOW MODEL =    62

 MAXIMUM STEPSIZE WHICH MEETS STABILITY CRITERION OF THE SINK & SOURCE TERM
 =  219.9    (WHEN MIN. R.F.=1)  AT K=   2, I=   1, J=   1

 MAXIMUM STEPSIZE WHICH MEETS STABILITY CRITERION OF THE DISPERSION TERM
 =  20.29    (WHEN MIN. R.F.=1)  AT K=   1, I=   1, J=  31
     1 CALLS TO GCG PACKAGE FOR TRANSPORT TIME STEP   4 IN FLOW TIME STEP 610 STRESS PERIOD   1
     5 TOTAL ITERATIONS
  MAXIMUM CONCENTRATION CHANGES FOR EACH ITERATION:
  MAX. CHANGE LAYER,ROW,COL MAX. CHANGE LAYER,ROW,COL MAX. CHANGE LAYER,ROW,COL MAX. CHANGE LAYER,ROW,COL MAX. CHANGE LAYER,ROW,COL
 ------------------------------------------------------------------------------------------------------------------------------------
   0.1280E-01 (  2,  1, 78)  0.1978E-03 (  2,  1, 78)  0.4605E-05 (  2,  1, 79)  0.1191E-06 (  3,  1, 79)  0.1928E-08 (  4,  1, 78)


                                          ================================================
                                                         FROM TIME =   6100.0     TO    6110.0    

 
 SOLVING FOR HEAD 
 FLOW MODEL IS TRANSIENT
 FLOW MODEL CONTAINS CONSTANT-HEAD CELLS


 MAXIMUM STEPSIZE DURING WHICH ANY PARTICLE CANNOT MOVE MORE THAN ONE CELL
 =  5.229    (WHEN MIN. R.F.=1)  AT K=   5, I=   1, J=  47

 MAXIMUM STEPSIZE WHICH MEETS STABILITY CRITERION OF THE ADVECTION TERM
 (FOR PURE FINITE-DIFFERENCE OPTION, MIXELM=0) 
 =  3.830    (WHEN MIN. R.F.=1)  AT K=   2, I=   1, J=  41


 TOTAL NUMBER OF POINT SOURCES/SINKS PRESENT IN THE FLOW MODEL =    62

 MAXIMUM STEPSIZE WHICH MEETS STABILITY CRITERION OF THE SINK & SOURCE TERM
 =  233.4    (WHEN MIN. R.F.=1)  AT K=   2, I=   1, J=   1

 MAXIMUM STEPSIZE WHICH MEETS STABILITY CRITERION OF THE DISPERSION TERM
 =  20.29    (WHEN MIN. R.F.=1)  AT K=   1, I=   1, J=  31


     1 CALLS TO GCG PACKAGE FOR TRANSPORT TIME STEP   1 IN FLOW TIME STEP 611 STRESS PERIOD   1
     6 TOTAL ITERATIONS

 NO OUTPUT CONTROL FOR STRESS PERIOD    1   TIME STEP 611
 
 SOLVING FOR HEAD 
 FLOW MODEL IS TRANSIENT
 FLOW MODEL CONTAINS CONSTANT-HEAD CELLS


 MAXIMUM STEPSIZE DURING WHICH ANY PARTICLE CANNOT MOVE MORE THAN ONE CELL
 =  5.315    (WHEN MIN. R.F.=1)  AT K=   5, I=   1, J=  47

 MAXIMUM STEPSIZE WHICH MEETS STABILITY CRITERION OF THE ADVECTION TERM
 (FOR PURE FINITE-DIFFERENCE OPTION, MIXELM=0) 
 =  4.067    (WHEN MIN. R.F.=1)  AT K=   2, I=   1, J=  41


 TOTAL NUMBER OF POINT SOURCES/SINKS PRESENT IN THE FLOW MODEL =    62

 MAXIMUM STEPSIZE WHICH MEETS STABILITY CRITERION OF THE SINK & SOURCE TERM
 =  220.7    (WHEN MIN. R.F.=1)  AT K=   2, I=   1, J=   1

 MAXIMUM STEPSIZE WHICH MEETS STABILITY CRITERION OF THE DISPERSION TERM
 =  20.29    (WHEN MIN. R.F.=1)  AT K=   1, I=   1, J=  31
     1 CALLS TO GCG PACKAGE FOR TRANSPORT TIME STEP   2 IN FLOW TIME STEP 611 STRESS PERIOD   1
     6 TOTAL ITERATIONS
 
 SOLVING FOR HEAD 
 FLOW MODEL IS TRANSIENT
 FLOW MODEL CONTAINS CONSTANT-HEAD CELLS


 MAXIMUM STEPSIZE DURING WHICH ANY PARTICLE CANNOT MOVE MORE THAN ONE CELL
 =  5.440    (WHEN MIN. R.F.=1)  AT K=   5, I=   1, J=  47

 MAXIMUM STEPSIZE WHICH MEETS STABILITY CRITERION OF THE ADVECTION TERM
 (FOR PURE FINITE-DIFFERENCE OPTION, MIXELM=0) 
 =  3.861    (WHEN MIN. R.F.=1)  AT K=   2, I=   1, J=  42


 TOTAL NUMBER OF POINT SOURCES/SINKS PRESENT IN THE FLOW MODEL =    62

 MAXIMUM STEPSIZE WHICH MEETS STABILITY CRITERION OF THE SINK & SOURCE TERM
 =  220.2    (WHEN MIN. R.F.=1)  AT K=   2, I=   1, J=   1

 MAXIMUM STEPSIZE WHICH MEETS STABILITY CRITERION OF THE DISPERSION TERM
 =  20.29    (WHEN MIN. R.F.=1)  AT K=   1, I=   1, J=  31
     1 CALLS TO GCG PACKAGE FOR TRANSPORT TIME STEP   3 IN FLOW TIME STEP 611 STRESS PERIOD   1
     6 TOTAL ITERATIONS
 
 SOLVING FOR HEAD 
 FLOW MODEL IS TRANSIENT
 FLOW MODEL CONTAINS CONSTANT-HEAD CELLS


 MAXIMUM STEPSIZE DURING WHICH ANY PARTICLE CANNOT MOVE MORE THAN ONE CELL
 =  5.578    (WHEN MIN. R.F.=1)  AT K=   6, I=   1, J=  47

 MAXIMUM STEPSIZE WHICH MEETS STABILITY CRITERION OF THE ADVECTION TERM
 (FOR PURE FINITE-DIFFERENCE OPTION, MIXELM=0) 
 =  3.720    (WHEN MIN. R.F.=1)  AT K=   2, I=   1, J=  42


 TOTAL NUMBER OF POINT SOURCES/SINKS PRESENT IN THE FLOW MODEL =    62

 MAXIMUM STEPSIZE WHICH MEETS STABILITY CRITERION OF THE SINK & SOURCE TERM
 =  220.1    (WHEN MIN. R.F.=1)  AT K=   2, I=   1, J=   1

 MAXIMUM STEPSIZE WHICH MEETS STABILITY CRITERION OF THE DISPERSION TERM
 =  20.29    (WHEN MIN. R.F.=1)  AT K=   1, I=   1, J=  31
     1 CALLS TO GCG PACKAGE FOR TRANSPORT TIME STEP   4 IN FLOW TIME STEP 611 STRESS PERIOD   1
     5 TOTAL ITERATIONS
  MAXIMUM CONCENTRATION CHANGES FOR EACH ITERATION:
  MAX. CHANGE LAYER,ROW,COL MAX. CHANGE LAYER,ROW,COL MAX. CHANGE LAYER,ROW,COL MAX. CHANGE LAYER,ROW,COL MAX. CHANGE LAYER,ROW,COL
 ------------------------------------------------------------------------------------------------------------------------------------
   0.1307E-01 (  2,  1, 31)  0.2683E-03 (  2,  1, 76)  0.7262E-05 (  2,  1, 45)  0.3331E-06 (  3,  1, 45)  0.7420E-08 (  4,  1, 45)


                                          ================================================
                                                         FROM TIME =   6110.0     TO    6120.0    

 
 SOLVING FOR HEAD 
 FLOW MODEL IS TRANSIENT
 FLOW MODEL CONTAINS CONSTANT-HEAD CELLS


 MAXIMUM STEPSIZE DURING WHICH ANY PARTICLE CANNOT MOVE MORE THAN ONE CELL
 =  5.627    (WHEN MIN. R.F.=1)  AT K=   6, I=   1, J=  47

 MAXIMUM STEPSIZE WHICH MEETS STABILITY CRITERION OF THE ADVECTION TERM
 (FOR PURE FINITE-DIFFERENCE OPTION, MIXELM=0) 
 =  3.713    (WHEN MIN. R.F.=1)  AT K=   2, I=   1, J=  42


 TOTAL NUMBER OF POINT SOURCES/SINKS PRESENT IN THE FLOW MODEL =    62

 MAXIMUM STEPSIZE WHICH MEETS STABILITY CRITERION OF THE SINK & SOURCE TERM
 =  242.3    (WHEN MIN. R.F.=1)  AT K=   2, I=   1, J=   1

 MAXIMUM STEPSIZE WHICH MEETS STABILITY CRITERION OF THE DISPERSION TERM
 =  20.29    (WHEN MIN. R.F.=1)  AT K=   1, I=   1, J=  31


     1 CALLS TO GCG PACKAGE FOR TRANSPORT TIME STEP   1 IN FLOW TIME STEP 612 STRESS PERIOD   1
     6 TOTAL ITERATIONS

 NO OUTPUT CONTROL FOR STRESS PERIOD    1   TIME STEP 612
 
 SOLVING FOR HEAD 
 FLOW MODEL IS TRANSIENT
 FLOW MODEL CONTAINS CONSTANT-HEAD CELLS


 MAXIMUM STEPSIZE DURING WHICH ANY PARTICLE CANNOT MOVE MORE THAN ONE CELL
 =  5.757    (WHEN MIN. R.F.=1)  AT K=   6, I=   1, J=  47

 MAXIMUM STEPSIZE WHICH MEETS STABILITY CRITERION OF THE ADVECTION TERM
 (FOR PURE FINITE-DIFFERENCE OPTION, MIXELM=0) 
 =  3.770    (WHEN MIN. R.F.=1)  AT K=   2, I=   1, J=  42


 TOTAL NUMBER OF POINT SOURCES/SINKS PRESENT IN THE FLOW MODEL =    62

 MAXIMUM STEPSIZE WHICH MEETS STABILITY CRITERION OF THE SINK & SOURCE TERM
 =  236.0    (WHEN MIN. R.F.=1)  AT K=   2, I=   1, J=   1

 MAXIMUM STEPSIZE WHICH MEETS STABILITY CRITERION OF THE DISPERSION TERM
 =  20.29    (WHEN MIN. R.F.=1)  AT K=   1, I=   1, J=  31
     1 CALLS TO GCG PACKAGE FOR TRANSPORT TIME STEP   2 IN FLOW TIME STEP 612 STRESS PERIOD   1
     6 TOTAL ITERATIONS
 
 SOLVING FOR HEAD 
 FLOW MODEL IS TRANSIENT
 FLOW MODEL CONTAINS CONSTANT-HEAD CELLS


 MAXIMUM STEPSIZE DURING WHICH ANY PARTICLE CANNOT MOVE MORE THAN ONE CELL
 =  5.896    (WHEN MIN. R.F.=1)  AT K=   7, I=   1, J=  47

 MAXIMUM STEPSIZE WHICH MEETS STABILITY CRITERION OF THE ADVECTION TERM
 (FOR PURE FINITE-DIFFERENCE OPTION, MIXELM=0) 
 =  3.971    (WHEN MIN. R.F.=1)  AT K=   2, I=   1, J=  42


 TOTAL NUMBER OF POINT SOURCES/SINKS PRESENT IN THE FLOW MODEL =    62

 MAXIMUM STEPSIZE WHICH MEETS STABILITY CRITERION OF THE SINK & SOURCE TERM
 =  239.4    (WHEN MIN. R.F.=1)  AT K=   2, I=   1, J=   1

 MAXIMUM STEPSIZE WHICH MEETS STABILITY CRITERION OF THE DISPERSION TERM
 =  20.29    (WHEN MIN. R.F.=1)  AT K=   1, I=   1, J=  31
     1 CALLS TO GCG PACKAGE FOR TRANSPORT TIME STEP   3 IN FLOW TIME STEP 612 STRESS PERIOD   1
     6 TOTAL ITERATIONS
 
 SOLVING FOR HEAD 
 FLOW MODEL IS TRANSIENT
 FLOW MODEL CONTAINS CONSTANT-HEAD CELLS


 MAXIMUM STEPSIZE DURING WHICH ANY PARTICLE CANNOT MOVE MORE THAN ONE CELL
 =  5.932    (WHEN MIN. R.F.=1)  AT K=  28, I=   1, J=  52

 MAXIMUM STEPSIZE WHICH MEETS STABILITY CRITERION OF THE ADVECTION TERM
 (FOR PURE FINITE-DIFFERENCE OPTION, MIXELM=0) 
 =  4.045    (WHEN MIN. R.F.=1)  AT K=   2, I=   1, J=  43


 TOTAL NUMBER OF POINT SOURCES/SINKS PRESENT IN THE FLOW MODEL =    62

 MAXIMUM STEPSIZE WHICH MEETS STABILITY CRITERION OF THE SINK & SOURCE TERM
 =  233.7    (WHEN MIN. R.F.=1)  AT K=   2, I=   1, J=   1

 MAXIMUM STEPSIZE WHICH MEETS STABILITY CRITERION OF THE DISPERSION TERM
 =  20.29    (WHEN MIN. R.F.=1)  AT K=   1, I=   1, J=  31
     1 CALLS TO GCG PACKAGE FOR TRANSPORT TIME STEP   4 IN FLOW TIME STEP 612 STRESS PERIOD   1
     5 TOTAL ITERATIONS
  MAXIMUM CONCENTRATION CHANGES FOR EACH ITERATION:
  MAX. CHANGE LAYER,ROW,COL MAX. CHANGE LAYER,ROW,COL MAX. CHANGE LAYER,ROW,COL MAX. CHANGE LAYER,ROW,COL MAX. CHANGE LAYER,ROW,COL
 ------------------------------------------------------------------------------------------------------------------------------------
   0.1897E-01 (  2,  1, 77)  0.3857E-03 (  2,  1, 49)  0.1406E-04 (  2,  1, 78)  0.5945E-06 (  3,  1, 78)  0.1494E-07 (  4,  1, 81)


                                          ================================================
                                                         FROM TIME =   6120.0     TO    6130.0    

 
 SOLVING FOR HEAD 
 FLOW MODEL IS TRANSIENT
 FLOW MODEL CONTAINS CONSTANT-HEAD CELLS


 MAXIMUM STEPSIZE DURING WHICH ANY PARTICLE CANNOT MOVE MORE THAN ONE CELL
 =  5.935    (WHEN MIN. R.F.=1)  AT K=  28, I=   1, J=  52

 MAXIMUM STEPSIZE WHICH MEETS STABILITY CRITERION OF THE ADVECTION TERM
 (FOR PURE FINITE-DIFFERENCE OPTION, MIXELM=0) 
 =  3.914    (WHEN MIN. R.F.=1)  AT K=   2, I=   1, J=  43


 TOTAL NUMBER OF POINT SOURCES/SINKS PRESENT IN THE FLOW MODEL =    62

 MAXIMUM STEPSIZE WHICH MEETS STABILITY CRITERION OF THE SINK & SOURCE TERM
 =  237.2    (WHEN MIN. R.F.=1)  AT K=   2, I=   1, J=   1

 MAXIMUM STEPSIZE WHICH MEETS STABILITY CRITERION OF THE DISPERSION TERM
 =  20.29    (WHEN MIN. R.F.=1)  AT K=   1, I=   1, J=  31


     1 CALLS TO GCG PACKAGE FOR TRANSPORT TIME STEP   1 IN FLOW TIME STEP 613 STRESS PERIOD   1
     6 TOTAL ITERATIONS

 NO OUTPUT CONTROL FOR STRESS PERIOD    1   TIME STEP 613
 
 SOLVING FOR HEAD 
 FLOW MODEL IS TRANSIENT
 FLOW MODEL CONTAINS CONSTANT-HEAD CELLS


 MAXIMUM STEPSIZE DURING WHICH ANY PARTICLE CANNOT MOVE MORE THAN ONE CELL
 =  5.932    (WHEN MIN. R.F.=1)  AT K=  28, I=   1, J=  52

 MAXIMUM STEPSIZE WHICH MEETS STABILITY CRITERION OF THE ADVECTION TERM
 (FOR PURE FINITE-DIFFERENCE OPTION, MIXELM=0) 
 =  3.788    (WHEN MIN. R.F.=1)  AT K=   2, I=   1, J=  43


 TOTAL NUMBER OF POINT SOURCES/SINKS PRESENT IN THE FLOW MODEL =    62

 MAXIMUM STEPSIZE WHICH MEETS STABILITY CRITERION OF THE SINK & SOURCE TERM
 =  231.6    (WHEN MIN. R.F.=1)  AT K=   2, I=   1, J=   1

 MAXIMUM STEPSIZE WHICH MEETS STABILITY CRITERION OF THE DISPERSION TERM
 =  20.29    (WHEN MIN. R.F.=1)  AT K=   1, I=   1, J=  31
     1 CALLS TO GCG PACKAGE FOR TRANSPORT TIME STEP   2 IN FLOW TIME STEP 613 STRESS PERIOD   1
     6 TOTAL ITERATIONS
 
 SOLVING FOR HEAD 
 FLOW MODEL IS TRANSIENT
 FLOW MODEL CONTAINS CONSTANT-HEAD CELLS


 MAXIMUM STEPSIZE DURING WHICH ANY PARTICLE CANNOT MOVE MORE THAN ONE CELL
 =  5.929    (WHEN MIN. R.F.=1)  AT K=  28, I=   1, J=  52

 MAXIMUM STEPSIZE WHICH MEETS STABILITY CRITERION OF THE ADVECTION TERM
 (FOR PURE FINITE-DIFFERENCE OPTION, MIXELM=0) 
 =  3.807    (WHEN MIN. R.F.=1)  AT K=   2, I=   1, J=  43


 TOTAL NUMBER OF POINT SOURCES/SINKS PRESENT IN THE FLOW MODEL =    62

 MAXIMUM STEPSIZE WHICH MEETS STABILITY CRITERION OF THE SINK & SOURCE TERM
 =  239.5    (WHEN MIN. R.F.=1)  AT K=   2, I=   1, J=   1

 MAXIMUM STEPSIZE WHICH MEETS STABILITY CRITERION OF THE DISPERSION TERM
 =  20.29    (WHEN MIN. R.F.=1)  AT K=   1, I=   1, J=  31
     1 CALLS TO GCG PACKAGE FOR TRANSPORT TIME STEP   3 IN FLOW TIME STEP 613 STRESS PERIOD   1
     6 TOTAL ITERATIONS
 
 SOLVING FOR HEAD 
 FLOW MODEL IS TRANSIENT
 FLOW MODEL CONTAINS CONSTANT-HEAD CELLS


 MAXIMUM STEPSIZE DURING WHICH ANY PARTICLE CANNOT MOVE MORE THAN ONE CELL
 =  5.847    (WHEN MIN. R.F.=1)  AT K=   4, I=   1, J=  74

 MAXIMUM STEPSIZE WHICH MEETS STABILITY CRITERION OF THE ADVECTION TERM
 (FOR PURE FINITE-DIFFERENCE OPTION, MIXELM=0) 
 =  3.934    (WHEN MIN. R.F.=1)  AT K=   2, I=   1, J=  43


 TOTAL NUMBER OF POINT SOURCES/SINKS PRESENT IN THE FLOW MODEL =    62

 MAXIMUM STEPSIZE WHICH MEETS STABILITY CRITERION OF THE SINK & SOURCE TERM
 =  241.1    (WHEN MIN. R.F.=1)  AT K=   2, I=   1, J=   1

 MAXIMUM STEPSIZE WHICH MEETS STABILITY CRITERION OF THE DISPERSION TERM
 =  20.29    (WHEN MIN. R.F.=1)  AT K=   1, I=   1, J=  31
     1 CALLS TO GCG PACKAGE FOR TRANSPORT TIME STEP   4 IN FLOW TIME STEP 613 STRESS PERIOD   1
     5 TOTAL ITERATIONS
  MAXIMUM CONCENTRATION CHANGES FOR EACH ITERATION:
  MAX. CHANGE LAYER,ROW,COL MAX. CHANGE LAYER,ROW,COL MAX. CHANGE LAYER,ROW,COL MAX. CHANGE LAYER,ROW,COL MAX. CHANGE LAYER,ROW,COL
 ------------------------------------------------------------------------------------------------------------------------------------
   0.1433E-01 (  2,  1, 83)  0.2495E-03 (  3,  1, 78)  0.5882E-05 (  3,  1, 44)  0.1787E-06 (  3,  1, 77)  0.4166E-08 (  4,  1, 74)


                                          ================================================
                                                         FROM TIME =   6130.0     TO    6140.0    

 
 SOLVING FOR HEAD 
 FLOW MODEL IS TRANSIENT
 FLOW MODEL CONTAINS CONSTANT-HEAD CELLS


 MAXIMUM STEPSIZE DURING WHICH ANY PARTICLE CANNOT MOVE MORE THAN ONE CELL
 =  5.725    (WHEN MIN. R.F.=1)  AT K=   4, I=   1, J=  74

 MAXIMUM STEPSIZE WHICH MEETS STABILITY CRITERION OF THE ADVECTION TERM
 (FOR PURE FINITE-DIFFERENCE OPTION, MIXELM=0) 
 =  4.043    (WHEN MIN. R.F.=1)  AT K=   2, I=   1, J=  43


 TOTAL NUMBER OF POINT SOURCES/SINKS PRESENT IN THE FLOW MODEL =    62

 MAXIMUM STEPSIZE WHICH MEETS STABILITY CRITERION OF THE SINK & SOURCE TERM
 =  258.9    (WHEN MIN. R.F.=1)  AT K=   2, I=   1, J=   1

 MAXIMUM STEPSIZE WHICH MEETS STABILITY CRITERION OF THE DISPERSION TERM
 =  20.29    (WHEN MIN. R.F.=1)  AT K=   1, I=   1, J=  31


     1 CALLS TO GCG PACKAGE FOR TRANSPORT TIME STEP   1 IN FLOW TIME STEP 614 STRESS PERIOD   1
     6 TOTAL ITERATIONS

 NO OUTPUT CONTROL FOR STRESS PERIOD    1   TIME STEP 614
 
 SOLVING FOR HEAD 
 FLOW MODEL IS TRANSIENT
 FLOW MODEL CONTAINS CONSTANT-HEAD CELLS


 MAXIMUM STEPSIZE DURING WHICH ANY PARTICLE CANNOT MOVE MORE THAN ONE CELL
 =  5.470    (WHEN MIN. R.F.=1)  AT K=   4, I=   1, J=  74

 MAXIMUM STEPSIZE WHICH MEETS STABILITY CRITERION OF THE ADVECTION TERM
 (FOR PURE FINITE-DIFFERENCE OPTION, MIXELM=0) 
 =  3.998    (WHEN MIN. R.F.=1)  AT K=   2, I=   1, J=  81


 TOTAL NUMBER OF POINT SOURCES/SINKS PRESENT IN THE FLOW MODEL =    62

 MAXIMUM STEPSIZE WHICH MEETS STABILITY CRITERION OF THE SINK & SOURCE TERM
 =  247.2    (WHEN MIN. R.F.=1)  AT K=   2, I=   1, J=   1

 MAXIMUM STEPSIZE WHICH MEETS STABILITY CRITERION OF THE DISPERSION TERM
 =  20.29    (WHEN MIN. R.F.=1)  AT K=   1, I=   1, J=  31
     1 CALLS TO GCG PACKAGE FOR TRANSPORT TIME STEP   2 IN FLOW TIME STEP 614 STRESS PERIOD   1
     6 TOTAL ITERATIONS
 
 SOLVING FOR HEAD 
 FLOW MODEL IS TRANSIENT
 FLOW MODEL CONTAINS CONSTANT-HEAD CELLS


 MAXIMUM STEPSIZE DURING WHICH ANY PARTICLE CANNOT MOVE MORE THAN ONE CELL
 =  5.272    (WHEN MIN. R.F.=1)  AT K=   4, I=   1, J=  74

 MAXIMUM STEPSIZE WHICH MEETS STABILITY CRITERION OF THE ADVECTION TERM
 (FOR PURE FINITE-DIFFERENCE OPTION, MIXELM=0) 
 =  3.882    (WHEN MIN. R.F.=1)  AT K=   2, I=   1, J=  81


 TOTAL NUMBER OF POINT SOURCES/SINKS PRESENT IN THE FLOW MODEL =    62

 MAXIMUM STEPSIZE WHICH MEETS STABILITY CRITERION OF THE SINK & SOURCE TERM
 =  250.5    (WHEN MIN. R.F.=1)  AT K=   2, I=   1, J=   1

 MAXIMUM STEPSIZE WHICH MEETS STABILITY CRITERION OF THE DISPERSION TERM
 =  20.29    (WHEN MIN. R.F.=1)  AT K=   1, I=   1, J=  31
     1 CALLS TO GCG PACKAGE FOR TRANSPORT TIME STEP   3 IN FLOW TIME STEP 614 STRESS PERIOD   1
     6 TOTAL ITERATIONS
 
 SOLVING FOR HEAD 
 FLOW MODEL IS TRANSIENT
 FLOW MODEL CONTAINS CONSTANT-HEAD CELLS


 MAXIMUM STEPSIZE DURING WHICH ANY PARTICLE CANNOT MOVE MORE THAN ONE CELL
 =  5.133    (WHEN MIN. R.F.=1)  AT K=   4, I=   1, J=  74

 MAXIMUM STEPSIZE WHICH MEETS STABILITY CRITERION OF THE ADVECTION TERM
 (FOR PURE FINITE-DIFFERENCE OPTION, MIXELM=0) 
 =  3.959    (WHEN MIN. R.F.=1)  AT K=   2, I=   1, J=  44


 TOTAL NUMBER OF POINT SOURCES/SINKS PRESENT IN THE FLOW MODEL =    62

 MAXIMUM STEPSIZE WHICH MEETS STABILITY CRITERION OF THE SINK & SOURCE TERM
 =  251.7    (WHEN MIN. R.F.=1)  AT K=   2, I=   1, J=   1

 MAXIMUM STEPSIZE WHICH MEETS STABILITY CRITERION OF THE DISPERSION TERM
 =  20.29    (WHEN MIN. R.F.=1)  AT K=   1, I=   1, J=  31
     1 CALLS TO GCG PACKAGE FOR TRANSPORT TIME STEP   4 IN FLOW TIME STEP 614 STRESS PERIOD   1
     4 TOTAL ITERATIONS
  MAXIMUM CONCENTRATION CHANGES FOR EACH ITERATION:
  MAX. CHANGE LAYER,ROW,COL MAX. CHANGE LAYER,ROW,COL MAX. CHANGE LAYER,ROW,COL MAX. CHANGE LAYER,ROW,COL MAX. CHANGE LAYER,ROW,COL
 ------------------------------------------------------------------------------------------------------------------------------------
   0.1317E-01 (  2,  1, 82)  0.1889E-03 (  2,  1, 46)  0.4493E-05 (  3,  1, 80)  0.9543E-07 (  4,  1, 80)


                                          ================================================
                                                         FROM TIME =   6140.0     TO    6150.0    

 
 SOLVING FOR HEAD 
 FLOW MODEL IS TRANSIENT
 FLOW MODEL CONTAINS CONSTANT-HEAD CELLS


 MAXIMUM STEPSIZE DURING WHICH ANY PARTICLE CANNOT MOVE MORE THAN ONE CELL
 =  5.097    (WHEN MIN. R.F.=1)  AT K=   4, I=   1, J=  74

 MAXIMUM STEPSIZE WHICH MEETS STABILITY CRITERION OF THE ADVECTION TERM
 (FOR PURE FINITE-DIFFERENCE OPTION, MIXELM=0) 
 =  3.962    (WHEN MIN. R.F.=1)  AT K=   2, I=   1, J=  44


 TOTAL NUMBER OF POINT SOURCES/SINKS PRESENT IN THE FLOW MODEL =    62

 MAXIMUM STEPSIZE WHICH MEETS STABILITY CRITERION OF THE SINK & SOURCE TERM
 =  267.6    (WHEN MIN. R.F.=1)  AT K=   2, I=   1, J=   1

 MAXIMUM STEPSIZE WHICH MEETS STABILITY CRITERION OF THE DISPERSION TERM
 =  20.29    (WHEN MIN. R.F.=1)  AT K=   1, I=   1, J=  31


     1 CALLS TO GCG PACKAGE FOR TRANSPORT TIME STEP   1 IN FLOW TIME STEP 615 STRESS PERIOD   1
     6 TOTAL ITERATIONS

 NO OUTPUT CONTROL FOR STRESS PERIOD    1   TIME STEP 615
 
 SOLVING FOR HEAD 
 FLOW MODEL IS TRANSIENT
 FLOW MODEL CONTAINS CONSTANT-HEAD CELLS


 MAXIMUM STEPSIZE DURING WHICH ANY PARTICLE CANNOT MOVE MORE THAN ONE CELL
 =  5.028    (WHEN MIN. R.F.=1)  AT K=   4, I=   1, J=  74

 MAXIMUM STEPSIZE WHICH MEETS STABILITY CRITERION OF THE ADVECTION TERM
 (FOR PURE FINITE-DIFFERENCE OPTION, MIXELM=0) 
 =  3.812    (WHEN MIN. R.F.=1)  AT K=   2, I=   1, J=  80


 TOTAL NUMBER OF POINT SOURCES/SINKS PRESENT IN THE FLOW MODEL =    62

 MAXIMUM STEPSIZE WHICH MEETS STABILITY CRITERION OF THE SINK & SOURCE TERM
 =  253.4    (WHEN MIN. R.F.=1)  AT K=   2, I=   1, J=   1

 MAXIMUM STEPSIZE WHICH MEETS STABILITY CRITERION OF THE DISPERSION TERM
 =  20.29    (WHEN MIN. R.F.=1)  AT K=   1, I=   1, J=  31
     1 CALLS TO GCG PACKAGE FOR TRANSPORT TIME STEP   2 IN FLOW TIME STEP 615 STRESS PERIOD   1
     6 TOTAL ITERATIONS
 
 SOLVING FOR HEAD 
 FLOW MODEL IS TRANSIENT
 FLOW MODEL CONTAINS CONSTANT-HEAD CELLS


 MAXIMUM STEPSIZE DURING WHICH ANY PARTICLE CANNOT MOVE MORE THAN ONE CELL
 =  5.006    (WHEN MIN. R.F.=1)  AT K=   4, I=   1, J=  74

 MAXIMUM STEPSIZE WHICH MEETS STABILITY CRITERION OF THE ADVECTION TERM
 (FOR PURE FINITE-DIFFERENCE OPTION, MIXELM=0) 
 =  3.623    (WHEN MIN. R.F.=1)  AT K=   2, I=   1, J=  80


 TOTAL NUMBER OF POINT SOURCES/SINKS PRESENT IN THE FLOW MODEL =    62

 MAXIMUM STEPSIZE WHICH MEETS STABILITY CRITERION OF THE SINK & SOURCE TERM
 =  252.6    (WHEN MIN. R.F.=1)  AT K=   2, I=   1, J=   1

 MAXIMUM STEPSIZE WHICH MEETS STABILITY CRITERION OF THE DISPERSION TERM
 =  20.29    (WHEN MIN. R.F.=1)  AT K=   1, I=   1, J=  31
     1 CALLS TO GCG PACKAGE FOR TRANSPORT TIME STEP   3 IN FLOW TIME STEP 615 STRESS PERIOD   1
     6 TOTAL ITERATIONS
 
 SOLVING FOR HEAD 
 FLOW MODEL IS TRANSIENT
 FLOW MODEL CONTAINS CONSTANT-HEAD CELLS


 MAXIMUM STEPSIZE DURING WHICH ANY PARTICLE CANNOT MOVE MORE THAN ONE CELL
 =  5.027    (WHEN MIN. R.F.=1)  AT K=   4, I=   1, J=  74

 MAXIMUM STEPSIZE WHICH MEETS STABILITY CRITERION OF THE ADVECTION TERM
 (FOR PURE FINITE-DIFFERENCE OPTION, MIXELM=0) 
 =  3.612    (WHEN MIN. R.F.=1)  AT K=   2, I=   1, J=  80


 TOTAL NUMBER OF POINT SOURCES/SINKS PRESENT IN THE FLOW MODEL =    62

 MAXIMUM STEPSIZE WHICH MEETS STABILITY CRITERION OF THE SINK & SOURCE TERM
 =  249.8    (WHEN MIN. R.F.=1)  AT K=   2, I=   1, J=   1

 MAXIMUM STEPSIZE WHICH MEETS STABILITY CRITERION OF THE DISPERSION TERM
 =  20.29    (WHEN MIN. R.F.=1)  AT K=   1, I=   1, J=  31
     1 CALLS TO GCG PACKAGE FOR TRANSPORT TIME STEP   4 IN FLOW TIME STEP 615 STRESS PERIOD   1
     5 TOTAL ITERATIONS
  MAXIMUM CONCENTRATION CHANGES FOR EACH ITERATION:
  MAX. CHANGE LAYER,ROW,COL MAX. CHANGE LAYER,ROW,COL MAX. CHANGE LAYER,ROW,COL MAX. CHANGE LAYER,ROW,COL MAX. CHANGE LAYER,ROW,COL
 ------------------------------------------------------------------------------------------------------------------------------------
   0.1458E-01 (  2,  1, 81)  0.2456E-03 (  2,  1, 45)  0.8680E-05 (  3,  1, 79)  0.2230E-06 (  3,  1, 77)  0.5192E-08 (  4,  1, 77)


                                          ================================================
                                                         FROM TIME =   6150.0     TO    6160.0    

 
 SOLVING FOR HEAD 
 FLOW MODEL IS TRANSIENT
 FLOW MODEL CONTAINS CONSTANT-HEAD CELLS


 MAXIMUM STEPSIZE DURING WHICH ANY PARTICLE CANNOT MOVE MORE THAN ONE CELL
 =  5.050    (WHEN MIN. R.F.=1)  AT K=   4, I=   1, J=  74

 MAXIMUM STEPSIZE WHICH MEETS STABILITY CRITERION OF THE ADVECTION TERM
 (FOR PURE FINITE-DIFFERENCE OPTION, MIXELM=0) 
 =  3.682    (WHEN MIN. R.F.=1)  AT K=   2, I=   1, J=  80


 TOTAL NUMBER OF POINT SOURCES/SINKS PRESENT IN THE FLOW MODEL =    62

 MAXIMUM STEPSIZE WHICH MEETS STABILITY CRITERION OF THE SINK & SOURCE TERM
 =  271.6    (WHEN MIN. R.F.=1)  AT K=   2, I=   1, J=   1

 MAXIMUM STEPSIZE WHICH MEETS STABILITY CRITERION OF THE DISPERSION TERM
 =  20.29    (WHEN MIN. R.F.=1)  AT K=   1, I=   1, J=  31


     1 CALLS TO GCG PACKAGE FOR TRANSPORT TIME STEP   1 IN FLOW TIME STEP 616 STRESS PERIOD   1
     6 TOTAL ITERATIONS

 NO OUTPUT CONTROL FOR STRESS PERIOD    1   TIME STEP 616
 
 SOLVING FOR HEAD 
 FLOW MODEL IS TRANSIENT
 FLOW MODEL CONTAINS CONSTANT-HEAD CELLS


 MAXIMUM STEPSIZE DURING WHICH ANY PARTICLE CANNOT MOVE MORE THAN ONE CELL
 =  5.111    (WHEN MIN. R.F.=1)  AT K=   5, I=   1, J=  74

 MAXIMUM STEPSIZE WHICH MEETS STABILITY CRITERION OF THE ADVECTION TERM
 (FOR PURE FINITE-DIFFERENCE OPTION, MIXELM=0) 
 =  3.971    (WHEN MIN. R.F.=1)  AT K=   2, I=   1, J=  80


 TOTAL NUMBER OF POINT SOURCES/SINKS PRESENT IN THE FLOW MODEL =    62

 MAXIMUM STEPSIZE WHICH MEETS STABILITY CRITERION OF THE SINK & SOURCE TERM
 =  260.1    (WHEN MIN. R.F.=1)  AT K=   2, I=   1, J=   1

 MAXIMUM STEPSIZE WHICH MEETS STABILITY CRITERION OF THE DISPERSION TERM
 =  20.29    (WHEN MIN. R.F.=1)  AT K=   1, I=   1, J=  31
     1 CALLS TO GCG PACKAGE FOR TRANSPORT TIME STEP   2 IN FLOW TIME STEP 616 STRESS PERIOD   1
     6 TOTAL ITERATIONS
 
 SOLVING FOR HEAD 
 FLOW MODEL IS TRANSIENT
 FLOW MODEL CONTAINS CONSTANT-HEAD CELLS


 MAXIMUM STEPSIZE DURING WHICH ANY PARTICLE CANNOT MOVE MORE THAN ONE CELL
 =  5.163    (WHEN MIN. R.F.=1)  AT K=   5, I=   1, J=  74

 MAXIMUM STEPSIZE WHICH MEETS STABILITY CRITERION OF THE ADVECTION TERM
 (FOR PURE FINITE-DIFFERENCE OPTION, MIXELM=0) 
 =  3.752    (WHEN MIN. R.F.=1)  AT K=   2, I=   1, J=  79


 TOTAL NUMBER OF POINT SOURCES/SINKS PRESENT IN THE FLOW MODEL =    62

 MAXIMUM STEPSIZE WHICH MEETS STABILITY CRITERION OF THE SINK & SOURCE TERM
 =  266.5    (WHEN MIN. R.F.=1)  AT K=   2, I=   1, J=   1

 MAXIMUM STEPSIZE WHICH MEETS STABILITY CRITERION OF THE DISPERSION TERM
 =  20.29    (WHEN MIN. R.F.=1)  AT K=   1, I=   1, J=  31
     1 CALLS TO GCG PACKAGE FOR TRANSPORT TIME STEP   3 IN FLOW TIME STEP 616 STRESS PERIOD   1
     6 TOTAL ITERATIONS
 
 SOLVING FOR HEAD 
 FLOW MODEL IS TRANSIENT
 FLOW MODEL CONTAINS CONSTANT-HEAD CELLS


 MAXIMUM STEPSIZE DURING WHICH ANY PARTICLE CANNOT MOVE MORE THAN ONE CELL
 =  5.254    (WHEN MIN. R.F.=1)  AT K=   5, I=   1, J=  74

 MAXIMUM STEPSIZE WHICH MEETS STABILITY CRITERION OF THE ADVECTION TERM
 (FOR PURE FINITE-DIFFERENCE OPTION, MIXELM=0) 
 =  3.587    (WHEN MIN. R.F.=1)  AT K=   2, I=   1, J=  79


 TOTAL NUMBER OF POINT SOURCES/SINKS PRESENT IN THE FLOW MODEL =    62

 MAXIMUM STEPSIZE WHICH MEETS STABILITY CRITERION OF THE SINK & SOURCE TERM
 =  265.0    (WHEN MIN. R.F.=1)  AT K=   2, I=   1, J=   1

 MAXIMUM STEPSIZE WHICH MEETS STABILITY CRITERION OF THE DISPERSION TERM
 =  20.29    (WHEN MIN. R.F.=1)  AT K=   1, I=   1, J=  31
     1 CALLS TO GCG PACKAGE FOR TRANSPORT TIME STEP   4 IN FLOW TIME STEP 616 STRESS PERIOD   1
     5 TOTAL ITERATIONS
  MAXIMUM CONCENTRATION CHANGES FOR EACH ITERATION:
  MAX. CHANGE LAYER,ROW,COL MAX. CHANGE LAYER,ROW,COL MAX. CHANGE LAYER,ROW,COL MAX. CHANGE LAYER,ROW,COL MAX. CHANGE LAYER,ROW,COL
 ------------------------------------------------------------------------------------------------------------------------------------
   0.1649E-01 (  2,  1, 80)  0.4191E-03 (  2,  1, 80)  0.1405E-04 (  2,  1, 76)  0.7538E-06 (  3,  1, 76)  0.2020E-07 (  4,  1, 76)


                                          ================================================
                                                         FROM TIME =   6160.0     TO    6170.0    

 
 SOLVING FOR HEAD 
 FLOW MODEL IS TRANSIENT
 FLOW MODEL CONTAINS CONSTANT-HEAD CELLS


 MAXIMUM STEPSIZE DURING WHICH ANY PARTICLE CANNOT MOVE MORE THAN ONE CELL
 =  5.318    (WHEN MIN. R.F.=1)  AT K=   5, I=   1, J=  74

 MAXIMUM STEPSIZE WHICH MEETS STABILITY CRITERION OF THE ADVECTION TERM
 (FOR PURE FINITE-DIFFERENCE OPTION, MIXELM=0) 
 =  3.580    (WHEN MIN. R.F.=1)  AT K=   2, I=   1, J=  79


 TOTAL NUMBER OF POINT SOURCES/SINKS PRESENT IN THE FLOW MODEL =    62

 MAXIMUM STEPSIZE WHICH MEETS STABILITY CRITERION OF THE SINK & SOURCE TERM
 =  276.7    (WHEN MIN. R.F.=1)  AT K=   2, I=   1, J=   1

 MAXIMUM STEPSIZE WHICH MEETS STABILITY CRITERION OF THE DISPERSION TERM
 =  20.29    (WHEN MIN. R.F.=1)  AT K=   1, I=   1, J=  31


     1 CALLS TO GCG PACKAGE FOR TRANSPORT TIME STEP   1 IN FLOW TIME STEP 617 STRESS PERIOD   1
     6 TOTAL ITERATIONS

 NO OUTPUT CONTROL FOR STRESS PERIOD    1   TIME STEP 617
 
 SOLVING FOR HEAD 
 FLOW MODEL IS TRANSIENT
 FLOW MODEL CONTAINS CONSTANT-HEAD CELLS


 MAXIMUM STEPSIZE DURING WHICH ANY PARTICLE CANNOT MOVE MORE THAN ONE CELL
 =  5.433    (WHEN MIN. R.F.=1)  AT K=   6, I=   1, J=  74

 MAXIMUM STEPSIZE WHICH MEETS STABILITY CRITERION OF THE ADVECTION TERM
 (FOR PURE FINITE-DIFFERENCE OPTION, MIXELM=0) 
 =  3.642    (WHEN MIN. R.F.=1)  AT K=   2, I=   1, J=  79


 TOTAL NUMBER OF POINT SOURCES/SINKS PRESENT IN THE FLOW MODEL =    62

 MAXIMUM STEPSIZE WHICH MEETS STABILITY CRITERION OF THE SINK & SOURCE TERM
 =  267.3    (WHEN MIN. R.F.=1)  AT K=   2, I=   1, J=   1

 MAXIMUM STEPSIZE WHICH MEETS STABILITY CRITERION OF THE DISPERSION TERM
 =  20.29    (WHEN MIN. R.F.=1)  AT K=   1, I=   1, J=  31
     1 CALLS TO GCG PACKAGE FOR TRANSPORT TIME STEP   2 IN FLOW TIME STEP 617 STRESS PERIOD   1
     6 TOTAL ITERATIONS
 
 SOLVING FOR HEAD 
 FLOW MODEL IS TRANSIENT
 FLOW MODEL CONTAINS CONSTANT-HEAD CELLS


 MAXIMUM STEPSIZE DURING WHICH ANY PARTICLE CANNOT MOVE MORE THAN ONE CELL
 =  5.530    (WHEN MIN. R.F.=1)  AT K=   6, I=   1, J=  74

 MAXIMUM STEPSIZE WHICH MEETS STABILITY CRITERION OF THE ADVECTION TERM
 (FOR PURE FINITE-DIFFERENCE OPTION, MIXELM=0) 
 =  3.867    (WHEN MIN. R.F.=1)  AT K=   2, I=   1, J=  79


 TOTAL NUMBER OF POINT SOURCES/SINKS PRESENT IN THE FLOW MODEL =    62

 MAXIMUM STEPSIZE WHICH MEETS STABILITY CRITERION OF THE SINK & SOURCE TERM
 =  267.6    (WHEN MIN. R.F.=1)  AT K=   2, I=   1, J=   1

 MAXIMUM STEPSIZE WHICH MEETS STABILITY CRITERION OF THE DISPERSION TERM
 =  20.29    (WHEN MIN. R.F.=1)  AT K=   1, I=   1, J=  31
     1 CALLS TO GCG PACKAGE FOR TRANSPORT TIME STEP   3 IN FLOW TIME STEP 617 STRESS PERIOD   1
     6 TOTAL ITERATIONS
 
 SOLVING FOR HEAD 
 FLOW MODEL IS TRANSIENT
 FLOW MODEL CONTAINS CONSTANT-HEAD CELLS


 MAXIMUM STEPSIZE DURING WHICH ANY PARTICLE CANNOT MOVE MORE THAN ONE CELL
 =  5.654    (WHEN MIN. R.F.=1)  AT K=   6, I=   1, J=  74

 MAXIMUM STEPSIZE WHICH MEETS STABILITY CRITERION OF THE ADVECTION TERM
 (FOR PURE FINITE-DIFFERENCE OPTION, MIXELM=0) 
 =  3.980    (WHEN MIN. R.F.=1)  AT K=   2, I=   1, J=  78


 TOTAL NUMBER OF POINT SOURCES/SINKS PRESENT IN THE FLOW MODEL =    62

 MAXIMUM STEPSIZE WHICH MEETS STABILITY CRITERION OF THE SINK & SOURCE TERM
 =  265.2    (WHEN MIN. R.F.=1)  AT K=   2, I=   1, J=   1

 MAXIMUM STEPSIZE WHICH MEETS STABILITY CRITERION OF THE DISPERSION TERM
 =  20.29    (WHEN MIN. R.F.=1)  AT K=   1, I=   1, J=  31
     1 CALLS TO GCG PACKAGE FOR TRANSPORT TIME STEP   4 IN FLOW TIME STEP 617 STRESS PERIOD   1
     5 TOTAL ITERATIONS
  MAXIMUM CONCENTRATION CHANGES FOR EACH ITERATION:
  MAX. CHANGE LAYER,ROW,COL MAX. CHANGE LAYER,ROW,COL MAX. CHANGE LAYER,ROW,COL MAX. CHANGE LAYER,ROW,COL MAX. CHANGE LAYER,ROW,COL
 ------------------------------------------------------------------------------------------------------------------------------------
   0.2166E-01 (  2,  1, 80)  0.7225E-03 (  2,  1, 78)  0.2492E-04 (  3,  1, 78)  0.9547E-06 (  3,  1, 76)  0.3393E-07 (  3,  1, 77)


                                          ================================================
                                                         FROM TIME =   6170.0     TO    6180.0    

 
 SOLVING FOR HEAD 
 FLOW MODEL IS TRANSIENT
 FLOW MODEL CONTAINS CONSTANT-HEAD CELLS


 MAXIMUM STEPSIZE DURING WHICH ANY PARTICLE CANNOT MOVE MORE THAN ONE CELL
 =  5.757    (WHEN MIN. R.F.=1)  AT K=   7, I=   1, J=  74

 MAXIMUM STEPSIZE WHICH MEETS STABILITY CRITERION OF THE ADVECTION TERM
 (FOR PURE FINITE-DIFFERENCE OPTION, MIXELM=0) 
 =  3.817    (WHEN MIN. R.F.=1)  AT K=   2, I=   1, J=  78


 TOTAL NUMBER OF POINT SOURCES/SINKS PRESENT IN THE FLOW MODEL =    62

 MAXIMUM STEPSIZE WHICH MEETS STABILITY CRITERION OF THE SINK & SOURCE TERM
 =  272.2    (WHEN MIN. R.F.=1)  AT K=   2, I=   1, J=   1

 MAXIMUM STEPSIZE WHICH MEETS STABILITY CRITERION OF THE DISPERSION TERM
 =  20.29    (WHEN MIN. R.F.=1)  AT K=   1, I=   1, J=  31


     1 CALLS TO GCG PACKAGE FOR TRANSPORT TIME STEP   1 IN FLOW TIME STEP 618 STRESS PERIOD   1
     6 TOTAL ITERATIONS

 NO OUTPUT CONTROL FOR STRESS PERIOD    1   TIME STEP 618
 
 SOLVING FOR HEAD 
 FLOW MODEL IS TRANSIENT
 FLOW MODEL CONTAINS CONSTANT-HEAD CELLS


 MAXIMUM STEPSIZE DURING WHICH ANY PARTICLE CANNOT MOVE MORE THAN ONE CELL
 =  5.876    (WHEN MIN. R.F.=1)  AT K=   7, I=   1, J=  74

 MAXIMUM STEPSIZE WHICH MEETS STABILITY CRITERION OF THE ADVECTION TERM
 (FOR PURE FINITE-DIFFERENCE OPTION, MIXELM=0) 
 =  3.681    (WHEN MIN. R.F.=1)  AT K=   2, I=   1, J=  78


 TOTAL NUMBER OF POINT SOURCES/SINKS PRESENT IN THE FLOW MODEL =    62

 MAXIMUM STEPSIZE WHICH MEETS STABILITY CRITERION OF THE SINK & SOURCE TERM
 =  266.8    (WHEN MIN. R.F.=1)  AT K=   2, I=   1, J=   1

 MAXIMUM STEPSIZE WHICH MEETS STABILITY CRITERION OF THE DISPERSION TERM
 =  20.29    (WHEN MIN. R.F.=1)  AT K=   1, I=   1, J=  31
     1 CALLS TO GCG PACKAGE FOR TRANSPORT TIME STEP   2 IN FLOW TIME STEP 618 STRESS PERIOD   1
     6 TOTAL ITERATIONS
 
 SOLVING FOR HEAD 
 FLOW MODEL IS TRANSIENT
 FLOW MODEL CONTAINS CONSTANT-HEAD CELLS


 MAXIMUM STEPSIZE DURING WHICH ANY PARTICLE CANNOT MOVE MORE THAN ONE CELL
 =  5.914    (WHEN MIN. R.F.=1)  AT K=  28, I=   1, J=  52

 MAXIMUM STEPSIZE WHICH MEETS STABILITY CRITERION OF THE ADVECTION TERM
 (FOR PURE FINITE-DIFFERENCE OPTION, MIXELM=0) 
 =  3.688    (WHEN MIN. R.F.=1)  AT K=   2, I=   1, J=  78


 TOTAL NUMBER OF POINT SOURCES/SINKS PRESENT IN THE FLOW MODEL =    62

 MAXIMUM STEPSIZE WHICH MEETS STABILITY CRITERION OF THE SINK & SOURCE TERM
 =  269.4    (WHEN MIN. R.F.=1)  AT K=   2, I=   1, J=   1

 MAXIMUM STEPSIZE WHICH MEETS STABILITY CRITERION OF THE DISPERSION TERM
 =  20.29    (WHEN MIN. R.F.=1)  AT K=   1, I=   1, J=  31
     1 CALLS TO GCG PACKAGE FOR TRANSPORT TIME STEP   3 IN FLOW TIME STEP 618 STRESS PERIOD   1
     6 TOTAL ITERATIONS
 
 SOLVING FOR HEAD 
 FLOW MODEL IS TRANSIENT
 FLOW MODEL CONTAINS CONSTANT-HEAD CELLS


 MAXIMUM STEPSIZE DURING WHICH ANY PARTICLE CANNOT MOVE MORE THAN ONE CELL
 =  5.675    (WHEN MIN. R.F.=1)  AT K=   4, I=   1, J=  47

 MAXIMUM STEPSIZE WHICH MEETS STABILITY CRITERION OF THE ADVECTION TERM
 (FOR PURE FINITE-DIFFERENCE OPTION, MIXELM=0) 
 =  3.809    (WHEN MIN. R.F.=1)  AT K=   2, I=   1, J=  78


 TOTAL NUMBER OF POINT SOURCES/SINKS PRESENT IN THE FLOW MODEL =    62

 MAXIMUM STEPSIZE WHICH MEETS STABILITY CRITERION OF THE SINK & SOURCE TERM
 =  267.6    (WHEN MIN. R.F.=1)  AT K=   2, I=   1, J=   1

 MAXIMUM STEPSIZE WHICH MEETS STABILITY CRITERION OF THE DISPERSION TERM
 =  20.29    (WHEN MIN. R.F.=1)  AT K=   1, I=   1, J=  31
     1 CALLS TO GCG PACKAGE FOR TRANSPORT TIME STEP   4 IN FLOW TIME STEP 618 STRESS PERIOD   1
     5 TOTAL ITERATIONS
  MAXIMUM CONCENTRATION CHANGES FOR EACH ITERATION:
  MAX. CHANGE LAYER,ROW,COL MAX. CHANGE LAYER,ROW,COL MAX. CHANGE LAYER,ROW,COL MAX. CHANGE LAYER,ROW,COL MAX. CHANGE LAYER,ROW,COL
 ------------------------------------------------------------------------------------------------------------------------------------
   0.1742E-01 (  2,  1, 79)  0.3397E-03 (  2,  1, 77)  0.1028E-04 (  3,  1, 77)  0.3458E-06 (  3,  1, 80)  0.8870E-08 (  3,  1, 77)


                                          ================================================
                                                         FROM TIME =   6180.0     TO    6190.0    

 
 SOLVING FOR HEAD 
 FLOW MODEL IS TRANSIENT
 FLOW MODEL CONTAINS CONSTANT-HEAD CELLS


 MAXIMUM STEPSIZE DURING WHICH ANY PARTICLE CANNOT MOVE MORE THAN ONE CELL
 =  5.530    (WHEN MIN. R.F.=1)  AT K=   4, I=   1, J=  47

 MAXIMUM STEPSIZE WHICH MEETS STABILITY CRITERION OF THE ADVECTION TERM
 (FOR PURE FINITE-DIFFERENCE OPTION, MIXELM=0) 
 =  3.938    (WHEN MIN. R.F.=1)  AT K=   2, I=   1, J=  78


 TOTAL NUMBER OF POINT SOURCES/SINKS PRESENT IN THE FLOW MODEL =    62

 MAXIMUM STEPSIZE WHICH MEETS STABILITY CRITERION OF THE SINK & SOURCE TERM
 =  281.6    (WHEN MIN. R.F.=1)  AT K=   2, I=   1, J=   1

 MAXIMUM STEPSIZE WHICH MEETS STABILITY CRITERION OF THE DISPERSION TERM
 =  20.29    (WHEN MIN. R.F.=1)  AT K=   1, I=   1, J=  31


     1 CALLS TO GCG PACKAGE FOR TRANSPORT TIME STEP   1 IN FLOW TIME STEP 619 STRESS PERIOD   1
     6 TOTAL ITERATIONS

 NO OUTPUT CONTROL FOR STRESS PERIOD    1   TIME STEP 619
 
 SOLVING FOR HEAD 
 FLOW MODEL IS TRANSIENT
 FLOW MODEL CONTAINS CONSTANT-HEAD CELLS


 MAXIMUM STEPSIZE DURING WHICH ANY PARTICLE CANNOT MOVE MORE THAN ONE CELL
 =  5.301    (WHEN MIN. R.F.=1)  AT K=   4, I=   1, J=  47

 MAXIMUM STEPSIZE WHICH MEETS STABILITY CRITERION OF THE ADVECTION TERM
 (FOR PURE FINITE-DIFFERENCE OPTION, MIXELM=0) 
 =  4.045    (WHEN MIN. R.F.=1)  AT K=   2, I=   1, J=  40


 TOTAL NUMBER OF POINT SOURCES/SINKS PRESENT IN THE FLOW MODEL =    62

 MAXIMUM STEPSIZE WHICH MEETS STABILITY CRITERION OF THE SINK & SOURCE TERM
 =  268.8    (WHEN MIN. R.F.=1)  AT K=   2, I=   1, J=   1

 MAXIMUM STEPSIZE WHICH MEETS STABILITY CRITERION OF THE DISPERSION TERM
 =  20.29    (WHEN MIN. R.F.=1)  AT K=   1, I=   1, J=  31
     1 CALLS TO GCG PACKAGE FOR TRANSPORT TIME STEP   2 IN FLOW TIME STEP 619 STRESS PERIOD   1
     6 TOTAL ITERATIONS
 
 SOLVING FOR HEAD 
 FLOW MODEL IS TRANSIENT
 FLOW MODEL CONTAINS CONSTANT-HEAD CELLS


 MAXIMUM STEPSIZE DURING WHICH ANY PARTICLE CANNOT MOVE MORE THAN ONE CELL
 =  5.151    (WHEN MIN. R.F.=1)  AT K=   4, I=   1, J=  47

 MAXIMUM STEPSIZE WHICH MEETS STABILITY CRITERION OF THE ADVECTION TERM
 (FOR PURE FINITE-DIFFERENCE OPTION, MIXELM=0) 
 =  3.992    (WHEN MIN. R.F.=1)  AT K=   2, I=   1, J=  77


 TOTAL NUMBER OF POINT SOURCES/SINKS PRESENT IN THE FLOW MODEL =    62

 MAXIMUM STEPSIZE WHICH MEETS STABILITY CRITERION OF THE SINK & SOURCE TERM
 =  271.5    (WHEN MIN. R.F.=1)  AT K=   2, I=   1, J=   1

 MAXIMUM STEPSIZE WHICH MEETS STABILITY CRITERION OF THE DISPERSION TERM
 =  20.29    (WHEN MIN. R.F.=1)  AT K=   1, I=   1, J=  31
     1 CALLS TO GCG PACKAGE FOR TRANSPORT TIME STEP   3 IN FLOW TIME STEP 619 STRESS PERIOD   1
     6 TOTAL ITERATIONS
 
 SOLVING FOR HEAD 
 FLOW MODEL IS TRANSIENT
 FLOW MODEL CONTAINS CONSTANT-HEAD CELLS


 MAXIMUM STEPSIZE DURING WHICH ANY PARTICLE CANNOT MOVE MORE THAN ONE CELL
 =  5.083    (WHEN MIN. R.F.=1)  AT K=   4, I=   1, J=  47

 MAXIMUM STEPSIZE WHICH MEETS STABILITY CRITERION OF THE ADVECTION TERM
 (FOR PURE FINITE-DIFFERENCE OPTION, MIXELM=0) 
 =  3.862    (WHEN MIN. R.F.=1)  AT K=   2, I=   1, J=  77


 TOTAL NUMBER OF POINT SOURCES/SINKS PRESENT IN THE FLOW MODEL =    62

 MAXIMUM STEPSIZE WHICH MEETS STABILITY CRITERION OF THE SINK & SOURCE TERM
 =  265.6    (WHEN MIN. R.F.=1)  AT K=   2, I=   1, J=   1

 MAXIMUM STEPSIZE WHICH MEETS STABILITY CRITERION OF THE DISPERSION TERM
 =  20.29    (WHEN MIN. R.F.=1)  AT K=   1, I=   1, J=  31
     1 CALLS TO GCG PACKAGE FOR TRANSPORT TIME STEP   4 IN FLOW TIME STEP 619 STRESS PERIOD   1
     5 TOTAL ITERATIONS
  MAXIMUM CONCENTRATION CHANGES FOR EACH ITERATION:
  MAX. CHANGE LAYER,ROW,COL MAX. CHANGE LAYER,ROW,COL MAX. CHANGE LAYER,ROW,COL MAX. CHANGE LAYER,ROW,COL MAX. CHANGE LAYER,ROW,COL
 ------------------------------------------------------------------------------------------------------------------------------------
   0.1300E-01 (  2,  1, 39)  0.2628E-03 (  2,  1, 77)  0.5427E-05 (  3,  1, 77)  0.1340E-06 (  3,  1, 79)  0.3784E-08 (  4,  1, 78)


                                          ================================================
                                                         FROM TIME =   6190.0     TO    6200.0    

 
 SOLVING FOR HEAD 
 FLOW MODEL IS TRANSIENT
 FLOW MODEL CONTAINS CONSTANT-HEAD CELLS


 MAXIMUM STEPSIZE DURING WHICH ANY PARTICLE CANNOT MOVE MORE THAN ONE CELL
 =  5.080    (WHEN MIN. R.F.=1)  AT K=   4, I=   1, J=  47

 MAXIMUM STEPSIZE WHICH MEETS STABILITY CRITERION OF THE ADVECTION TERM
 (FOR PURE FINITE-DIFFERENCE OPTION, MIXELM=0) 
 =  3.857    (WHEN MIN. R.F.=1)  AT K=   2, I=   1, J=  77


 TOTAL NUMBER OF POINT SOURCES/SINKS PRESENT IN THE FLOW MODEL =    62

 MAXIMUM STEPSIZE WHICH MEETS STABILITY CRITERION OF THE SINK & SOURCE TERM
 =  291.4    (WHEN MIN. R.F.=1)  AT K=   2, I=   1, J=   1

 MAXIMUM STEPSIZE WHICH MEETS STABILITY CRITERION OF THE DISPERSION TERM
 =  20.29    (WHEN MIN. R.F.=1)  AT K=   1, I=   1, J=  31


     1 CALLS TO GCG PACKAGE FOR TRANSPORT TIME STEP   1 IN FLOW TIME STEP 620 STRESS PERIOD   1
     6 TOTAL ITERATIONS

 NO OUTPUT CONTROL FOR STRESS PERIOD    1   TIME STEP 620
 
 SOLVING FOR HEAD 
 FLOW MODEL IS TRANSIENT
 FLOW MODEL CONTAINS CONSTANT-HEAD CELLS


 MAXIMUM STEPSIZE DURING WHICH ANY PARTICLE CANNOT MOVE MORE THAN ONE CELL
 =  5.116    (WHEN MIN. R.F.=1)  AT K=   4, I=   1, J=  47

 MAXIMUM STEPSIZE WHICH MEETS STABILITY CRITERION OF THE ADVECTION TERM
 (FOR PURE FINITE-DIFFERENCE OPTION, MIXELM=0) 
 =  3.838    (WHEN MIN. R.F.=1)  AT K=   2, I=   1, J=  41


 TOTAL NUMBER OF POINT SOURCES/SINKS PRESENT IN THE FLOW MODEL =    62

 MAXIMUM STEPSIZE WHICH MEETS STABILITY CRITERION OF THE SINK & SOURCE TERM
 =  276.1    (WHEN MIN. R.F.=1)  AT K=   2, I=   1, J=   1

 MAXIMUM STEPSIZE WHICH MEETS STABILITY CRITERION OF THE DISPERSION TERM
 =  20.29    (WHEN MIN. R.F.=1)  AT K=   1, I=   1, J=  31
     1 CALLS TO GCG PACKAGE FOR TRANSPORT TIME STEP   2 IN FLOW TIME STEP 620 STRESS PERIOD   1
     6 TOTAL ITERATIONS
 
 SOLVING FOR HEAD 
 FLOW MODEL IS TRANSIENT
 FLOW MODEL CONTAINS CONSTANT-HEAD CELLS


 MAXIMUM STEPSIZE DURING WHICH ANY PARTICLE CANNOT MOVE MORE THAN ONE CELL
 =  5.187    (WHEN MIN. R.F.=1)  AT K=   5, I=   1, J=  47

 MAXIMUM STEPSIZE WHICH MEETS STABILITY CRITERION OF THE ADVECTION TERM
 (FOR PURE FINITE-DIFFERENCE OPTION, MIXELM=0) 
 =  3.789    (WHEN MIN. R.F.=1)  AT K=   2, I=   1, J=  41


 TOTAL NUMBER OF POINT SOURCES/SINKS PRESENT IN THE FLOW MODEL =    62

 MAXIMUM STEPSIZE WHICH MEETS STABILITY CRITERION OF THE SINK & SOURCE TERM
 =  282.4    (WHEN MIN. R.F.=1)  AT K=   2, I=   1, J=   1

 MAXIMUM STEPSIZE WHICH MEETS STABILITY CRITERION OF THE DISPERSION TERM
 =  20.29    (WHEN MIN. R.F.=1)  AT K=   1, I=   1, J=  31
     1 CALLS TO GCG PACKAGE FOR TRANSPORT TIME STEP   3 IN FLOW TIME STEP 620 STRESS PERIOD   1
     6 TOTAL ITERATIONS
 
 SOLVING FOR HEAD 
 FLOW MODEL IS TRANSIENT
 FLOW MODEL CONTAINS CONSTANT-HEAD CELLS


 MAXIMUM STEPSIZE DURING WHICH ANY PARTICLE CANNOT MOVE MORE THAN ONE CELL
 =  5.247    (WHEN MIN. R.F.=1)  AT K=   5, I=   1, J=  47

 MAXIMUM STEPSIZE WHICH MEETS STABILITY CRITERION OF THE ADVECTION TERM
 (FOR PURE FINITE-DIFFERENCE OPTION, MIXELM=0) 
 =  3.886    (WHEN MIN. R.F.=1)  AT K=   2, I=   1, J=  41


 TOTAL NUMBER OF POINT SOURCES/SINKS PRESENT IN THE FLOW MODEL =    62

 MAXIMUM STEPSIZE WHICH MEETS STABILITY CRITERION OF THE SINK & SOURCE TERM
 =  281.3    (WHEN MIN. R.F.=1)  AT K=   2, I=   1, J=   1

 MAXIMUM STEPSIZE WHICH MEETS STABILITY CRITERION OF THE DISPERSION TERM
 =  20.29    (WHEN MIN. R.F.=1)  AT K=   1, I=   1, J=  31
     1 CALLS TO GCG PACKAGE FOR TRANSPORT TIME STEP   4 IN FLOW TIME STEP 620 STRESS PERIOD   1
     5 TOTAL ITERATIONS
  MAXIMUM CONCENTRATION CHANGES FOR EACH ITERATION:
  MAX. CHANGE LAYER,ROW,COL MAX. CHANGE LAYER,ROW,COL MAX. CHANGE LAYER,ROW,COL MAX. CHANGE LAYER,ROW,COL MAX. CHANGE LAYER,ROW,COL
 ------------------------------------------------------------------------------------------------------------------------------------
   0.1558E-01 (  2,  1, 78)  0.3149E-03 (  2,  1, 76)  0.9880E-05 (  3,  1, 42)  0.2616E-06 (  3,  1, 79)  0.7037E-08 (  4,  1, 75)


                                          ================================================
                                                         FROM TIME =   6200.0     TO    6210.0    

 
 SOLVING FOR HEAD 
 FLOW MODEL IS TRANSIENT
 FLOW MODEL CONTAINS CONSTANT-HEAD CELLS


 MAXIMUM STEPSIZE DURING WHICH ANY PARTICLE CANNOT MOVE MORE THAN ONE CELL
 =  5.291    (WHEN MIN. R.F.=1)  AT K=   5, I=   1, J=  47

 MAXIMUM STEPSIZE WHICH MEETS STABILITY CRITERION OF THE ADVECTION TERM
 (FOR PURE FINITE-DIFFERENCE OPTION, MIXELM=0) 
 =  4.015    (WHEN MIN. R.F.=1)  AT K=   2, I=   1, J=  41


 TOTAL NUMBER OF POINT SOURCES/SINKS PRESENT IN THE FLOW MODEL =    62

 MAXIMUM STEPSIZE WHICH MEETS STABILITY CRITERION OF THE SINK & SOURCE TERM
 =  304.0    (WHEN MIN. R.F.=1)  AT K=   2, I=   1, J=   1

 MAXIMUM STEPSIZE WHICH MEETS STABILITY CRITERION OF THE DISPERSION TERM
 =  20.29    (WHEN MIN. R.F.=1)  AT K=   1, I=   1, J=  31


     1 CALLS TO GCG PACKAGE FOR TRANSPORT TIME STEP   1 IN FLOW TIME STEP 621 STRESS PERIOD   1
     6 TOTAL ITERATIONS

 NO OUTPUT CONTROL FOR STRESS PERIOD    1   TIME STEP 621
 
 SOLVING FOR HEAD 
 FLOW MODEL IS TRANSIENT
 FLOW MODEL CONTAINS CONSTANT-HEAD CELLS


 MAXIMUM STEPSIZE DURING WHICH ANY PARTICLE CANNOT MOVE MORE THAN ONE CELL
 =  5.414    (WHEN MIN. R.F.=1)  AT K=   5, I=   1, J=  47

 MAXIMUM STEPSIZE WHICH MEETS STABILITY CRITERION OF THE ADVECTION TERM
 (FOR PURE FINITE-DIFFERENCE OPTION, MIXELM=0) 
 =  3.904    (WHEN MIN. R.F.=1)  AT K=   2, I=   1, J=  42


 TOTAL NUMBER OF POINT SOURCES/SINKS PRESENT IN THE FLOW MODEL =    62

 MAXIMUM STEPSIZE WHICH MEETS STABILITY CRITERION OF THE SINK & SOURCE TERM
 =  286.5    (WHEN MIN. R.F.=1)  AT K=   2, I=   1, J=   1

 MAXIMUM STEPSIZE WHICH MEETS STABILITY CRITERION OF THE DISPERSION TERM
 =  20.29    (WHEN MIN. R.F.=1)  AT K=   1, I=   1, J=  31
     1 CALLS TO GCG PACKAGE FOR TRANSPORT TIME STEP   2 IN FLOW TIME STEP 621 STRESS PERIOD   1
     6 TOTAL ITERATIONS
 
 SOLVING FOR HEAD 
 FLOW MODEL IS TRANSIENT
 FLOW MODEL CONTAINS CONSTANT-HEAD CELLS


 MAXIMUM STEPSIZE DURING WHICH ANY PARTICLE CANNOT MOVE MORE THAN ONE CELL
 =  5.559    (WHEN MIN. R.F.=1)  AT K=   6, I=   1, J=  47

 MAXIMUM STEPSIZE WHICH MEETS STABILITY CRITERION OF THE ADVECTION TERM
 (FOR PURE FINITE-DIFFERENCE OPTION, MIXELM=0) 
 =  3.737    (WHEN MIN. R.F.=1)  AT K=   2, I=   1, J=  42


 TOTAL NUMBER OF POINT SOURCES/SINKS PRESENT IN THE FLOW MODEL =    62

 MAXIMUM STEPSIZE WHICH MEETS STABILITY CRITERION OF THE SINK & SOURCE TERM
 =  290.9    (WHEN MIN. R.F.=1)  AT K=   2, I=   1, J=   1

 MAXIMUM STEPSIZE WHICH MEETS STABILITY CRITERION OF THE DISPERSION TERM
 =  20.29    (WHEN MIN. R.F.=1)  AT K=   1, I=   1, J=  31
     1 CALLS TO GCG PACKAGE FOR TRANSPORT TIME STEP   3 IN FLOW TIME STEP 621 STRESS PERIOD   1
     6 TOTAL ITERATIONS
 
 SOLVING FOR HEAD 
 FLOW MODEL IS TRANSIENT
 FLOW MODEL CONTAINS CONSTANT-HEAD CELLS


 MAXIMUM STEPSIZE DURING WHICH ANY PARTICLE CANNOT MOVE MORE THAN ONE CELL
 =  5.677    (WHEN MIN. R.F.=1)  AT K=   6, I=   1, J=  47

 MAXIMUM STEPSIZE WHICH MEETS STABILITY CRITERION OF THE ADVECTION TERM
 (FOR PURE FINITE-DIFFERENCE OPTION, MIXELM=0) 
 =  3.733    (WHEN MIN. R.F.=1)  AT K=   2, I=   1, J=  42


 TOTAL NUMBER OF POINT SOURCES/SINKS PRESENT IN THE FLOW MODEL =    62

 MAXIMUM STEPSIZE WHICH MEETS STABILITY CRITERION OF THE SINK & SOURCE TERM
 =  287.2    (WHEN MIN. R.F.=1)  AT K=   2, I=   1, J=   1

 MAXIMUM STEPSIZE WHICH MEETS STABILITY CRITERION OF THE DISPERSION TERM
 =  20.29    (WHEN MIN. R.F.=1)  AT K=   1, I=   1, J=  31
     1 CALLS TO GCG PACKAGE FOR TRANSPORT TIME STEP   4 IN FLOW TIME STEP 621 STRESS PERIOD   1
     5 TOTAL ITERATIONS
  MAXIMUM CONCENTRATION CHANGES FOR EACH ITERATION:
  MAX. CHANGE LAYER,ROW,COL MAX. CHANGE LAYER,ROW,COL MAX. CHANGE LAYER,ROW,COL MAX. CHANGE LAYER,ROW,COL MAX. CHANGE LAYER,ROW,COL
 ------------------------------------------------------------------------------------------------------------------------------------
   0.1245E-01 (  2,  1, 77)  0.2212E-03 (  2,  1, 77)  0.6041E-05 (  2,  1, 78)  0.2332E-06 (  3,  1, 45)  0.4581E-08 (  4,  1, 45)


                                          ================================================
                                                         FROM TIME =   6210.0     TO    6220.0    

 
 SOLVING FOR HEAD 
 FLOW MODEL IS TRANSIENT
 FLOW MODEL CONTAINS CONSTANT-HEAD CELLS


 MAXIMUM STEPSIZE DURING WHICH ANY PARTICLE CANNOT MOVE MORE THAN ONE CELL
 =  5.734    (WHEN MIN. R.F.=1)  AT K=   6, I=   1, J=  47

 MAXIMUM STEPSIZE WHICH MEETS STABILITY CRITERION OF THE ADVECTION TERM
 (FOR PURE FINITE-DIFFERENCE OPTION, MIXELM=0) 
 =  3.761    (WHEN MIN. R.F.=1)  AT K=   2, I=   1, J=  42


 TOTAL NUMBER OF POINT SOURCES/SINKS PRESENT IN THE FLOW MODEL =    62

 MAXIMUM STEPSIZE WHICH MEETS STABILITY CRITERION OF THE SINK & SOURCE TERM
 =  309.5    (WHEN MIN. R.F.=1)  AT K=   2, I=   1, J=   1

 MAXIMUM STEPSIZE WHICH MEETS STABILITY CRITERION OF THE DISPERSION TERM
 =  20.29    (WHEN MIN. R.F.=1)  AT K=   1, I=   1, J=  31


     1 CALLS TO GCG PACKAGE FOR TRANSPORT TIME STEP   1 IN FLOW TIME STEP 622 STRESS PERIOD   1
     5 TOTAL ITERATIONS

 NO OUTPUT CONTROL FOR STRESS PERIOD    1   TIME STEP 622



 >>>>>>>>>>>>>>>>>>>>>>>>>>>>>>>>>>>>>>>>>>>>>>>>>>>>>>>FOR COMPONENT NO. 01<<<<<<<<<<<<<<<<<<<<<<<<<<<<<<<<<<<<<<<<<<<<<<<<<<<<<<<


                                            -------------------------------------------
                                                      TRANSPORT STEP NO.    1
                                            -------------------------------------------

 TOTAL ELAPSED TIME SINCE BEGINNING OF SIMULATION =   6211.000    D   
 .....................................................................

                     CUMULATIVE MASS BUDGETS AT END OF TRANSPORT STEP    1, TIME STEP  622, STRESS PERIOD    1
                     ------------------------------------------------------------------------------------------

                                                             IN                           OUT
                                                      ----------------             ----------------
                               CONSTANT CONCENTRATION:    3583482.                   -2657605.    
                                        CONSTANT HEAD:    0.000000                   -1005.209    
                               MASS STOR (FLOW MODEL):    418.4582                   -615.5154    
                                MASS STORAGE (SOLUTE):    6365725.                   -7290400.    
                            ---------------------------------------------------------------------------
                                              [TOTAL]:    9949626.     KG            -9949626.     KG  

                                                          NET (IN - OUT):  -0.1981323E-01
                                                   DISCREPANCY (PERCENT):  -0.1991355E-06
 
 SOLVING FOR HEAD 
 FLOW MODEL IS TRANSIENT
 FLOW MODEL CONTAINS CONSTANT-HEAD CELLS


 MAXIMUM STEPSIZE DURING WHICH ANY PARTICLE CANNOT MOVE MORE THAN ONE CELL
 =  5.789    (WHEN MIN. R.F.=1)  AT K=   6, I=   1, J=  47

 MAXIMUM STEPSIZE WHICH MEETS STABILITY CRITERION OF THE ADVECTION TERM
 (FOR PURE FINITE-DIFFERENCE OPTION, MIXELM=0) 
 =  3.807    (WHEN MIN. R.F.=1)  AT K=   2, I=   1, J=  42


 TOTAL NUMBER OF POINT SOURCES/SINKS PRESENT IN THE FLOW MODEL =    62

 MAXIMUM STEPSIZE WHICH MEETS STABILITY CRITERION OF THE SINK & SOURCE TERM
 =  322.9    (WHEN MIN. R.F.=1)  AT K=   2, I=   1, J=   1

 MAXIMUM STEPSIZE WHICH MEETS STABILITY CRITERION OF THE DISPERSION TERM
 =  20.29    (WHEN MIN. R.F.=1)  AT K=   1, I=   1, J=  31
     1 CALLS TO GCG PACKAGE FOR TRANSPORT TIME STEP   2 IN FLOW TIME STEP 622 STRESS PERIOD   1
     6 TOTAL ITERATIONS
 
 SOLVING FOR HEAD 
 FLOW MODEL IS TRANSIENT
 FLOW MODEL CONTAINS CONSTANT-HEAD CELLS


 MAXIMUM STEPSIZE DURING WHICH ANY PARTICLE CANNOT MOVE MORE THAN ONE CELL
 =  5.918    (WHEN MIN. R.F.=1)  AT K=  28, I=   1, J=  52

 MAXIMUM STEPSIZE WHICH MEETS STABILITY CRITERION OF THE ADVECTION TERM
 (FOR PURE FINITE-DIFFERENCE OPTION, MIXELM=0) 
 =  4.050    (WHEN MIN. R.F.=1)  AT K=   2, I=   1, J=  42


 TOTAL NUMBER OF POINT SOURCES/SINKS PRESENT IN THE FLOW MODEL =    62

 MAXIMUM STEPSIZE WHICH MEETS STABILITY CRITERION OF THE SINK & SOURCE TERM
 =  302.2    (WHEN MIN. R.F.=1)  AT K=   2, I=   1, J=   1

 MAXIMUM STEPSIZE WHICH MEETS STABILITY CRITERION OF THE DISPERSION TERM
 =  20.29    (WHEN MIN. R.F.=1)  AT K=   1, I=   1, J=  31
     1 CALLS TO GCG PACKAGE FOR TRANSPORT TIME STEP   3 IN FLOW TIME STEP 622 STRESS PERIOD   1
     6 TOTAL ITERATIONS
 
 SOLVING FOR HEAD 
 FLOW MODEL IS TRANSIENT
 FLOW MODEL CONTAINS CONSTANT-HEAD CELLS


 MAXIMUM STEPSIZE DURING WHICH ANY PARTICLE CANNOT MOVE MORE THAN ONE CELL
 =  5.915    (WHEN MIN. R.F.=1)  AT K=  28, I=   1, J=  52

 MAXIMUM STEPSIZE WHICH MEETS STABILITY CRITERION OF THE ADVECTION TERM
 (FOR PURE FINITE-DIFFERENCE OPTION, MIXELM=0) 
 =  3.993    (WHEN MIN. R.F.=1)  AT K=   2, I=   1, J=  43


 TOTAL NUMBER OF POINT SOURCES/SINKS PRESENT IN THE FLOW MODEL =    62

 MAXIMUM STEPSIZE WHICH MEETS STABILITY CRITERION OF THE SINK & SOURCE TERM
 =  303.3    (WHEN MIN. R.F.=1)  AT K=   2, I=   1, J=   1

 MAXIMUM STEPSIZE WHICH MEETS STABILITY CRITERION OF THE DISPERSION TERM
 =  20.29    (WHEN MIN. R.F.=1)  AT K=   1, I=   1, J=  31
     1 CALLS TO GCG PACKAGE FOR TRANSPORT TIME STEP   4 IN FLOW TIME STEP 622 STRESS PERIOD   1
     6 TOTAL ITERATIONS
 
 SOLVING FOR HEAD 
 FLOW MODEL IS TRANSIENT
 FLOW MODEL CONTAINS CONSTANT-HEAD CELLS


 MAXIMUM STEPSIZE DURING WHICH ANY PARTICLE CANNOT MOVE MORE THAN ONE CELL
 =  5.911    (WHEN MIN. R.F.=1)  AT K=  28, I=   1, J=  52

 MAXIMUM STEPSIZE WHICH MEETS STABILITY CRITERION OF THE ADVECTION TERM
 (FOR PURE FINITE-DIFFERENCE OPTION, MIXELM=0) 
 =  3.810    (WHEN MIN. R.F.=1)  AT K=   2, I=   1, J=  43


 TOTAL NUMBER OF POINT SOURCES/SINKS PRESENT IN THE FLOW MODEL =    62

 MAXIMUM STEPSIZE WHICH MEETS STABILITY CRITERION OF THE SINK & SOURCE TERM
 =  289.7    (WHEN MIN. R.F.=1)  AT K=   2, I=   1, J=   1

 MAXIMUM STEPSIZE WHICH MEETS STABILITY CRITERION OF THE DISPERSION TERM
 =  20.29    (WHEN MIN. R.F.=1)  AT K=   1, I=   1, J=  31
     1 CALLS TO GCG PACKAGE FOR TRANSPORT TIME STEP   5 IN FLOW TIME STEP 622 STRESS PERIOD   1
     3 TOTAL ITERATIONS
  MAXIMUM CONCENTRATION CHANGES FOR EACH ITERATION:
  MAX. CHANGE LAYER,ROW,COL MAX. CHANGE LAYER,ROW,COL MAX. CHANGE LAYER,ROW,COL MAX. CHANGE LAYER,ROW,COL MAX. CHANGE LAYER,ROW,COL
 ------------------------------------------------------------------------------------------------------------------------------------
   0.3068E-02 (  2,  1, 83)  0.1659E-04 (  2,  1, 83)  0.8792E-07 (  2,  1, 84)


                                          ================================================
                                                         FROM TIME =   6220.0     TO    6230.0    

 
 SOLVING FOR HEAD 
 FLOW MODEL IS TRANSIENT
 FLOW MODEL CONTAINS CONSTANT-HEAD CELLS


 MAXIMUM STEPSIZE DURING WHICH ANY PARTICLE CANNOT MOVE MORE THAN ONE CELL
 =  5.912    (WHEN MIN. R.F.=1)  AT K=  28, I=   1, J=  52

 MAXIMUM STEPSIZE WHICH MEETS STABILITY CRITERION OF THE ADVECTION TERM
 (FOR PURE FINITE-DIFFERENCE OPTION, MIXELM=0) 
 =  3.803    (WHEN MIN. R.F.=1)  AT K=   2, I=   1, J=  43


 TOTAL NUMBER OF POINT SOURCES/SINKS PRESENT IN THE FLOW MODEL =    62

 MAXIMUM STEPSIZE WHICH MEETS STABILITY CRITERION OF THE SINK & SOURCE TERM
 =  337.4    (WHEN MIN. R.F.=1)  AT K=   2, I=   1, J=   1

 MAXIMUM STEPSIZE WHICH MEETS STABILITY CRITERION OF THE DISPERSION TERM
 =  20.29    (WHEN MIN. R.F.=1)  AT K=   1, I=   1, J=  31


     1 CALLS TO GCG PACKAGE FOR TRANSPORT TIME STEP   1 IN FLOW TIME STEP 623 STRESS PERIOD   1
     6 TOTAL ITERATIONS

 NO OUTPUT CONTROL FOR STRESS PERIOD    1   TIME STEP 623
 
 SOLVING FOR HEAD 
 FLOW MODEL IS TRANSIENT
 FLOW MODEL CONTAINS CONSTANT-HEAD CELLS


 MAXIMUM STEPSIZE DURING WHICH ANY PARTICLE CANNOT MOVE MORE THAN ONE CELL
 =  5.910    (WHEN MIN. R.F.=1)  AT K=  28, I=   1, J=  52

 MAXIMUM STEPSIZE WHICH MEETS STABILITY CRITERION OF THE ADVECTION TERM
 (FOR PURE FINITE-DIFFERENCE OPTION, MIXELM=0) 
 =  3.791    (WHEN MIN. R.F.=1)  AT K=   2, I=   1, J=  43


 TOTAL NUMBER OF POINT SOURCES/SINKS PRESENT IN THE FLOW MODEL =    62

 MAXIMUM STEPSIZE WHICH MEETS STABILITY CRITERION OF THE SINK & SOURCE TERM
 =  320.9    (WHEN MIN. R.F.=1)  AT K=   2, I=   1, J=   1

 MAXIMUM STEPSIZE WHICH MEETS STABILITY CRITERION OF THE DISPERSION TERM
 =  20.29    (WHEN MIN. R.F.=1)  AT K=   1, I=   1, J=  31
     1 CALLS TO GCG PACKAGE FOR TRANSPORT TIME STEP   2 IN FLOW TIME STEP 623 STRESS PERIOD   1
     6 TOTAL ITERATIONS
 
 SOLVING FOR HEAD 
 FLOW MODEL IS TRANSIENT
 FLOW MODEL CONTAINS CONSTANT-HEAD CELLS


 MAXIMUM STEPSIZE DURING WHICH ANY PARTICLE CANNOT MOVE MORE THAN ONE CELL
 =  5.680    (WHEN MIN. R.F.=1)  AT K=   4, I=   1, J=  74

 MAXIMUM STEPSIZE WHICH MEETS STABILITY CRITERION OF THE ADVECTION TERM
 (FOR PURE FINITE-DIFFERENCE OPTION, MIXELM=0) 
 =  3.881    (WHEN MIN. R.F.=1)  AT K=   2, I=   1, J=  43


 TOTAL NUMBER OF POINT SOURCES/SINKS PRESENT IN THE FLOW MODEL =    62

 MAXIMUM STEPSIZE WHICH MEETS STABILITY CRITERION OF THE SINK & SOURCE TERM
 =  323.3    (WHEN MIN. R.F.=1)  AT K=   2, I=   1, J=   1

 MAXIMUM STEPSIZE WHICH MEETS STABILITY CRITERION OF THE DISPERSION TERM
 =  20.29    (WHEN MIN. R.F.=1)  AT K=   1, I=   1, J=  31
     1 CALLS TO GCG PACKAGE FOR TRANSPORT TIME STEP   3 IN FLOW TIME STEP 623 STRESS PERIOD   1
     6 TOTAL ITERATIONS
 
 SOLVING FOR HEAD 
 FLOW MODEL IS TRANSIENT
 FLOW MODEL CONTAINS CONSTANT-HEAD CELLS


 MAXIMUM STEPSIZE DURING WHICH ANY PARTICLE CANNOT MOVE MORE THAN ONE CELL
 =  5.445    (WHEN MIN. R.F.=1)  AT K=   4, I=   1, J=  74

 MAXIMUM STEPSIZE WHICH MEETS STABILITY CRITERION OF THE ADVECTION TERM
 (FOR PURE FINITE-DIFFERENCE OPTION, MIXELM=0) 
 =  4.059    (WHEN MIN. R.F.=1)  AT K=   2, I=   1, J=  81


 TOTAL NUMBER OF POINT SOURCES/SINKS PRESENT IN THE FLOW MODEL =    62

 MAXIMUM STEPSIZE WHICH MEETS STABILITY CRITERION OF THE SINK & SOURCE TERM
 =  325.9    (WHEN MIN. R.F.=1)  AT K=   2, I=   1, J=   1

 MAXIMUM STEPSIZE WHICH MEETS STABILITY CRITERION OF THE DISPERSION TERM
 =  20.29    (WHEN MIN. R.F.=1)  AT K=   1, I=   1, J=  31
     1 CALLS TO GCG PACKAGE FOR TRANSPORT TIME STEP   4 IN FLOW TIME STEP 623 STRESS PERIOD   1
     5 TOTAL ITERATIONS
  MAXIMUM CONCENTRATION CHANGES FOR EACH ITERATION:
  MAX. CHANGE LAYER,ROW,COL MAX. CHANGE LAYER,ROW,COL MAX. CHANGE LAYER,ROW,COL MAX. CHANGE LAYER,ROW,COL MAX. CHANGE LAYER,ROW,COL
 ------------------------------------------------------------------------------------------------------------------------------------
   0.1626E-01 (  2,  1, 42)  0.3767E-03 (  2,  1, 44)  0.1138E-04 (  3,  1, 44)  0.3963E-06 (  3,  1, 77)  0.1044E-07 (  3,  1, 33)


                                          ================================================
                                                         FROM TIME =   6230.0     TO    6240.0    

 
 SOLVING FOR HEAD 
 FLOW MODEL IS TRANSIENT
 FLOW MODEL CONTAINS CONSTANT-HEAD CELLS


 MAXIMUM STEPSIZE DURING WHICH ANY PARTICLE CANNOT MOVE MORE THAN ONE CELL
 =  5.346    (WHEN MIN. R.F.=1)  AT K=   4, I=   1, J=  74

 MAXIMUM STEPSIZE WHICH MEETS STABILITY CRITERION OF THE ADVECTION TERM
 (FOR PURE FINITE-DIFFERENCE OPTION, MIXELM=0) 
 =  3.977    (WHEN MIN. R.F.=1)  AT K=   2, I=   1, J=  81


 TOTAL NUMBER OF POINT SOURCES/SINKS PRESENT IN THE FLOW MODEL =    62

 MAXIMUM STEPSIZE WHICH MEETS STABILITY CRITERION OF THE SINK & SOURCE TERM
 =  360.2    (WHEN MIN. R.F.=1)  AT K=   2, I=   1, J=   1

 MAXIMUM STEPSIZE WHICH MEETS STABILITY CRITERION OF THE DISPERSION TERM
 =  20.29    (WHEN MIN. R.F.=1)  AT K=   1, I=   1, J=  31


     1 CALLS TO GCG PACKAGE FOR TRANSPORT TIME STEP   1 IN FLOW TIME STEP 624 STRESS PERIOD   1
     6 TOTAL ITERATIONS

 NO OUTPUT CONTROL FOR STRESS PERIOD    1   TIME STEP 624
 
 SOLVING FOR HEAD 
 FLOW MODEL IS TRANSIENT
 FLOW MODEL CONTAINS CONSTANT-HEAD CELLS


 MAXIMUM STEPSIZE DURING WHICH ANY PARTICLE CANNOT MOVE MORE THAN ONE CELL
 =  5.180    (WHEN MIN. R.F.=1)  AT K=   4, I=   1, J=  74

 MAXIMUM STEPSIZE WHICH MEETS STABILITY CRITERION OF THE ADVECTION TERM
 (FOR PURE FINITE-DIFFERENCE OPTION, MIXELM=0) 
 =  3.929    (WHEN MIN. R.F.=1)  AT K=   2, I=   1, J=  81


 TOTAL NUMBER OF POINT SOURCES/SINKS PRESENT IN THE FLOW MODEL =    62

 MAXIMUM STEPSIZE WHICH MEETS STABILITY CRITERION OF THE SINK & SOURCE TERM
 =  344.6    (WHEN MIN. R.F.=1)  AT K=   2, I=   1, J=   1

 MAXIMUM STEPSIZE WHICH MEETS STABILITY CRITERION OF THE DISPERSION TERM
 =  20.29    (WHEN MIN. R.F.=1)  AT K=   1, I=   1, J=  31
     1 CALLS TO GCG PACKAGE FOR TRANSPORT TIME STEP   2 IN FLOW TIME STEP 624 STRESS PERIOD   1
     6 TOTAL ITERATIONS
 
 SOLVING FOR HEAD 
 FLOW MODEL IS TRANSIENT
 FLOW MODEL CONTAINS CONSTANT-HEAD CELLS


 MAXIMUM STEPSIZE DURING WHICH ANY PARTICLE CANNOT MOVE MORE THAN ONE CELL
 =  5.067    (WHEN MIN. R.F.=1)  AT K=   4, I=   1, J=  74

 MAXIMUM STEPSIZE WHICH MEETS STABILITY CRITERION OF THE ADVECTION TERM
 (FOR PURE FINITE-DIFFERENCE OPTION, MIXELM=0) 
 =  3.973    (WHEN MIN. R.F.=1)  AT K=   2, I=   1, J=  44


 TOTAL NUMBER OF POINT SOURCES/SINKS PRESENT IN THE FLOW MODEL =    62

 MAXIMUM STEPSIZE WHICH MEETS STABILITY CRITERION OF THE SINK & SOURCE TERM
 =  353.4    (WHEN MIN. R.F.=1)  AT K=   2, I=   1, J=   1

 MAXIMUM STEPSIZE WHICH MEETS STABILITY CRITERION OF THE DISPERSION TERM
 =  20.29    (WHEN MIN. R.F.=1)  AT K=   1, I=   1, J=  31
     1 CALLS TO GCG PACKAGE FOR TRANSPORT TIME STEP   3 IN FLOW TIME STEP 624 STRESS PERIOD   1
     6 TOTAL ITERATIONS
 
 SOLVING FOR HEAD 
 FLOW MODEL IS TRANSIENT
 FLOW MODEL CONTAINS CONSTANT-HEAD CELLS


 MAXIMUM STEPSIZE DURING WHICH ANY PARTICLE CANNOT MOVE MORE THAN ONE CELL
 =  5.002    (WHEN MIN. R.F.=1)  AT K=   4, I=   1, J=  74

 MAXIMUM STEPSIZE WHICH MEETS STABILITY CRITERION OF THE ADVECTION TERM
 (FOR PURE FINITE-DIFFERENCE OPTION, MIXELM=0) 
 =  3.860    (WHEN MIN. R.F.=1)  AT K=   2, I=   1, J=  80


 TOTAL NUMBER OF POINT SOURCES/SINKS PRESENT IN THE FLOW MODEL =    62

 MAXIMUM STEPSIZE WHICH MEETS STABILITY CRITERION OF THE SINK & SOURCE TERM
 =  344.9    (WHEN MIN. R.F.=1)  AT K=   2, I=   1, J=   1

 MAXIMUM STEPSIZE WHICH MEETS STABILITY CRITERION OF THE DISPERSION TERM
 =  20.29    (WHEN MIN. R.F.=1)  AT K=   1, I=   1, J=  31
     1 CALLS TO GCG PACKAGE FOR TRANSPORT TIME STEP   4 IN FLOW TIME STEP 624 STRESS PERIOD   1
     4 TOTAL ITERATIONS
  MAXIMUM CONCENTRATION CHANGES FOR EACH ITERATION:
  MAX. CHANGE LAYER,ROW,COL MAX. CHANGE LAYER,ROW,COL MAX. CHANGE LAYER,ROW,COL MAX. CHANGE LAYER,ROW,COL MAX. CHANGE LAYER,ROW,COL
 ------------------------------------------------------------------------------------------------------------------------------------
   0.1148E-01 (  2,  1, 82)  0.1989E-03 (  2,  1, 46)  0.3718E-05 (  3,  1, 46)  0.9475E-07 (  3,  1, 77)


                                          ================================================
                                                         FROM TIME =   6240.0     TO    6250.0    

 
 SOLVING FOR HEAD 
 FLOW MODEL IS TRANSIENT
 FLOW MODEL CONTAINS CONSTANT-HEAD CELLS


 MAXIMUM STEPSIZE DURING WHICH ANY PARTICLE CANNOT MOVE MORE THAN ONE CELL
 =  4.992    (WHEN MIN. R.F.=1)  AT K=   4, I=   1, J=  74

 MAXIMUM STEPSIZE WHICH MEETS STABILITY CRITERION OF THE ADVECTION TERM
 (FOR PURE FINITE-DIFFERENCE OPTION, MIXELM=0) 
 =  3.783    (WHEN MIN. R.F.=1)  AT K=   2, I=   1, J=  80


 TOTAL NUMBER OF POINT SOURCES/SINKS PRESENT IN THE FLOW MODEL =    62

 MAXIMUM STEPSIZE WHICH MEETS STABILITY CRITERION OF THE SINK & SOURCE TERM
 =  383.9    (WHEN MIN. R.F.=1)  AT K=   2, I=   1, J=   1

 MAXIMUM STEPSIZE WHICH MEETS STABILITY CRITERION OF THE DISPERSION TERM
 =  20.29    (WHEN MIN. R.F.=1)  AT K=   1, I=   1, J=  31


     1 CALLS TO GCG PACKAGE FOR TRANSPORT TIME STEP   1 IN FLOW TIME STEP 625 STRESS PERIOD   1
     6 TOTAL ITERATIONS

 NO OUTPUT CONTROL FOR STRESS PERIOD    1   TIME STEP 625
 
 SOLVING FOR HEAD 
 FLOW MODEL IS TRANSIENT
 FLOW MODEL CONTAINS CONSTANT-HEAD CELLS


 MAXIMUM STEPSIZE DURING WHICH ANY PARTICLE CANNOT MOVE MORE THAN ONE CELL
 =  4.986    (WHEN MIN. R.F.=1)  AT K=   4, I=   1, J=  74

 MAXIMUM STEPSIZE WHICH MEETS STABILITY CRITERION OF THE ADVECTION TERM
 (FOR PURE FINITE-DIFFERENCE OPTION, MIXELM=0) 
 =  3.661    (WHEN MIN. R.F.=1)  AT K=   2, I=   1, J=  80


 TOTAL NUMBER OF POINT SOURCES/SINKS PRESENT IN THE FLOW MODEL =    62

 MAXIMUM STEPSIZE WHICH MEETS STABILITY CRITERION OF THE SINK & SOURCE TERM
 =  360.6    (WHEN MIN. R.F.=1)  AT K=   2, I=   1, J=   1

 MAXIMUM STEPSIZE WHICH MEETS STABILITY CRITERION OF THE DISPERSION TERM
 =  20.29    (WHEN MIN. R.F.=1)  AT K=   1, I=   1, J=  31
     1 CALLS TO GCG PACKAGE FOR TRANSPORT TIME STEP   2 IN FLOW TIME STEP 625 STRESS PERIOD   1
     6 TOTAL ITERATIONS
 
 SOLVING FOR HEAD 
 FLOW MODEL IS TRANSIENT
 FLOW MODEL CONTAINS CONSTANT-HEAD CELLS


 MAXIMUM STEPSIZE DURING WHICH ANY PARTICLE CANNOT MOVE MORE THAN ONE CELL
 =  5.024    (WHEN MIN. R.F.=1)  AT K=   4, I=   1, J=  74

 MAXIMUM STEPSIZE WHICH MEETS STABILITY CRITERION OF THE ADVECTION TERM
 (FOR PURE FINITE-DIFFERENCE OPTION, MIXELM=0) 
 =  3.682    (WHEN MIN. R.F.=1)  AT K=   2, I=   1, J=  80


 TOTAL NUMBER OF POINT SOURCES/SINKS PRESENT IN THE FLOW MODEL =    62

 MAXIMUM STEPSIZE WHICH MEETS STABILITY CRITERION OF THE SINK & SOURCE TERM
 =  371.4    (WHEN MIN. R.F.=1)  AT K=   2, I=   1, J=   1

 MAXIMUM STEPSIZE WHICH MEETS STABILITY CRITERION OF THE DISPERSION TERM
 =  20.29    (WHEN MIN. R.F.=1)  AT K=   1, I=   1, J=  31
     1 CALLS TO GCG PACKAGE FOR TRANSPORT TIME STEP   3 IN FLOW TIME STEP 625 STRESS PERIOD   1
     6 TOTAL ITERATIONS
 
 SOLVING FOR HEAD 
 FLOW MODEL IS TRANSIENT
 FLOW MODEL CONTAINS CONSTANT-HEAD CELLS


 MAXIMUM STEPSIZE DURING WHICH ANY PARTICLE CANNOT MOVE MORE THAN ONE CELL
 =  5.085    (WHEN MIN. R.F.=1)  AT K=   5, I=   1, J=  74

 MAXIMUM STEPSIZE WHICH MEETS STABILITY CRITERION OF THE ADVECTION TERM
 (FOR PURE FINITE-DIFFERENCE OPTION, MIXELM=0) 
 =  3.945    (WHEN MIN. R.F.=1)  AT K=   2, I=   1, J=  80


 TOTAL NUMBER OF POINT SOURCES/SINKS PRESENT IN THE FLOW MODEL =    62

 MAXIMUM STEPSIZE WHICH MEETS STABILITY CRITERION OF THE SINK & SOURCE TERM
 =  375.5    (WHEN MIN. R.F.=1)  AT K=   2, I=   1, J=   1

 MAXIMUM STEPSIZE WHICH MEETS STABILITY CRITERION OF THE DISPERSION TERM
 =  20.29    (WHEN MIN. R.F.=1)  AT K=   1, I=   1, J=  31
     1 CALLS TO GCG PACKAGE FOR TRANSPORT TIME STEP   4 IN FLOW TIME STEP 625 STRESS PERIOD   1
     5 TOTAL ITERATIONS
  MAXIMUM CONCENTRATION CHANGES FOR EACH ITERATION:
  MAX. CHANGE LAYER,ROW,COL MAX. CHANGE LAYER,ROW,COL MAX. CHANGE LAYER,ROW,COL MAX. CHANGE LAYER,ROW,COL MAX. CHANGE LAYER,ROW,COL
 ------------------------------------------------------------------------------------------------------------------------------------
   0.1905E-01 (  2,  1, 81)  0.4391E-03 (  2,  1, 79)  0.1799E-04 (  3,  1, 79)  0.5242E-06 (  4,  1, 79)  0.1470E-07 (  4,  1, 78)


                                          ================================================
                                                         FROM TIME =   6250.0     TO    6260.0    

 
 SOLVING FOR HEAD 
 FLOW MODEL IS TRANSIENT
 FLOW MODEL CONTAINS CONSTANT-HEAD CELLS


 MAXIMUM STEPSIZE DURING WHICH ANY PARTICLE CANNOT MOVE MORE THAN ONE CELL
 =  5.111    (WHEN MIN. R.F.=1)  AT K=   5, I=   1, J=  74

 MAXIMUM STEPSIZE WHICH MEETS STABILITY CRITERION OF THE ADVECTION TERM
 (FOR PURE FINITE-DIFFERENCE OPTION, MIXELM=0) 
 =  3.901    (WHEN MIN. R.F.=1)  AT K=   2, I=   1, J=  79


 TOTAL NUMBER OF POINT SOURCES/SINKS PRESENT IN THE FLOW MODEL =    62

 MAXIMUM STEPSIZE WHICH MEETS STABILITY CRITERION OF THE SINK & SOURCE TERM
 =  413.5    (WHEN MIN. R.F.=1)  AT K=   2, I=   1, J=   1

 MAXIMUM STEPSIZE WHICH MEETS STABILITY CRITERION OF THE DISPERSION TERM
 =  20.29    (WHEN MIN. R.F.=1)  AT K=   1, I=   1, J=  31


     1 CALLS TO GCG PACKAGE FOR TRANSPORT TIME STEP   1 IN FLOW TIME STEP 626 STRESS PERIOD   1
     6 TOTAL ITERATIONS

 NO OUTPUT CONTROL FOR STRESS PERIOD    1   TIME STEP 626
 
 SOLVING FOR HEAD 
 FLOW MODEL IS TRANSIENT
 FLOW MODEL CONTAINS CONSTANT-HEAD CELLS


 MAXIMUM STEPSIZE DURING WHICH ANY PARTICLE CANNOT MOVE MORE THAN ONE CELL
 =  5.186    (WHEN MIN. R.F.=1)  AT K=   5, I=   1, J=  74

 MAXIMUM STEPSIZE WHICH MEETS STABILITY CRITERION OF THE ADVECTION TERM
 (FOR PURE FINITE-DIFFERENCE OPTION, MIXELM=0) 
 =  3.656    (WHEN MIN. R.F.=1)  AT K=   2, I=   1, J=  79


 TOTAL NUMBER OF POINT SOURCES/SINKS PRESENT IN THE FLOW MODEL =    62

 MAXIMUM STEPSIZE WHICH MEETS STABILITY CRITERION OF THE SINK & SOURCE TERM
 =  385.9    (WHEN MIN. R.F.=1)  AT K=   2, I=   1, J=   1

 MAXIMUM STEPSIZE WHICH MEETS STABILITY CRITERION OF THE DISPERSION TERM
 =  20.29    (WHEN MIN. R.F.=1)  AT K=   1, I=   1, J=  31
     1 CALLS TO GCG PACKAGE FOR TRANSPORT TIME STEP   2 IN FLOW TIME STEP 626 STRESS PERIOD   1
     6 TOTAL ITERATIONS
 
 SOLVING FOR HEAD 
 FLOW MODEL IS TRANSIENT
 FLOW MODEL CONTAINS CONSTANT-HEAD CELLS


 MAXIMUM STEPSIZE DURING WHICH ANY PARTICLE CANNOT MOVE MORE THAN ONE CELL
 =  5.294    (WHEN MIN. R.F.=1)  AT K=   5, I=   1, J=  74

 MAXIMUM STEPSIZE WHICH MEETS STABILITY CRITERION OF THE ADVECTION TERM
 (FOR PURE FINITE-DIFFERENCE OPTION, MIXELM=0) 
 =  3.581    (WHEN MIN. R.F.=1)  AT K=   2, I=   1, J=  79


 TOTAL NUMBER OF POINT SOURCES/SINKS PRESENT IN THE FLOW MODEL =    62

 MAXIMUM STEPSIZE WHICH MEETS STABILITY CRITERION OF THE SINK & SOURCE TERM
 =  402.3    (WHEN MIN. R.F.=1)  AT K=   2, I=   1, J=   1

 MAXIMUM STEPSIZE WHICH MEETS STABILITY CRITERION OF THE DISPERSION TERM
 =  20.29    (WHEN MIN. R.F.=1)  AT K=   1, I=   1, J=  31
     1 CALLS TO GCG PACKAGE FOR TRANSPORT TIME STEP   3 IN FLOW TIME STEP 626 STRESS PERIOD   1
     6 TOTAL ITERATIONS
 
 SOLVING FOR HEAD 
 FLOW MODEL IS TRANSIENT
 FLOW MODEL CONTAINS CONSTANT-HEAD CELLS


 MAXIMUM STEPSIZE DURING WHICH ANY PARTICLE CANNOT MOVE MORE THAN ONE CELL
 =  5.421    (WHEN MIN. R.F.=1)  AT K=   6, I=   1, J=  74

 MAXIMUM STEPSIZE WHICH MEETS STABILITY CRITERION OF THE ADVECTION TERM
 (FOR PURE FINITE-DIFFERENCE OPTION, MIXELM=0) 
 =  3.640    (WHEN MIN. R.F.=1)  AT K=   2, I=   1, J=  79


 TOTAL NUMBER OF POINT SOURCES/SINKS PRESENT IN THE FLOW MODEL =    62

 MAXIMUM STEPSIZE WHICH MEETS STABILITY CRITERION OF THE SINK & SOURCE TERM
 =  398.1    (WHEN MIN. R.F.=1)  AT K=   2, I=   1, J=   1

 MAXIMUM STEPSIZE WHICH MEETS STABILITY CRITERION OF THE DISPERSION TERM
 =  20.29    (WHEN MIN. R.F.=1)  AT K=   1, I=   1, J=  31
     1 CALLS TO GCG PACKAGE FOR TRANSPORT TIME STEP   4 IN FLOW TIME STEP 626 STRESS PERIOD   1
     5 TOTAL ITERATIONS
  MAXIMUM CONCENTRATION CHANGES FOR EACH ITERATION:
  MAX. CHANGE LAYER,ROW,COL MAX. CHANGE LAYER,ROW,COL MAX. CHANGE LAYER,ROW,COL MAX. CHANGE LAYER,ROW,COL MAX. CHANGE LAYER,ROW,COL
 ------------------------------------------------------------------------------------------------------------------------------------
   0.1730E-01 (  2,  1, 80)  0.3182E-03 (  2,  1, 80)  0.1158E-04 (  3,  1, 78)  0.4628E-06 (  3,  1, 76)  0.1012E-07 (  4,  1, 76)


                                          ================================================
                                                         FROM TIME =   6260.0     TO    6270.0    

 
 SOLVING FOR HEAD 
 FLOW MODEL IS TRANSIENT
 FLOW MODEL CONTAINS CONSTANT-HEAD CELLS


 MAXIMUM STEPSIZE DURING WHICH ANY PARTICLE CANNOT MOVE MORE THAN ONE CELL
 =  5.470    (WHEN MIN. R.F.=1)  AT K=   6, I=   1, J=  74

 MAXIMUM STEPSIZE WHICH MEETS STABILITY CRITERION OF THE ADVECTION TERM
 (FOR PURE FINITE-DIFFERENCE OPTION, MIXELM=0) 
 =  3.740    (WHEN MIN. R.F.=1)  AT K=   2, I=   1, J=  79


 TOTAL NUMBER OF POINT SOURCES/SINKS PRESENT IN THE FLOW MODEL =    62

 MAXIMUM STEPSIZE WHICH MEETS STABILITY CRITERION OF THE SINK & SOURCE TERM
 =  424.5    (WHEN MIN. R.F.=1)  AT K=   2, I=   1, J=   1

 MAXIMUM STEPSIZE WHICH MEETS STABILITY CRITERION OF THE DISPERSION TERM
 =  20.29    (WHEN MIN. R.F.=1)  AT K=   1, I=   1, J=  31


     1 CALLS TO GCG PACKAGE FOR TRANSPORT TIME STEP   1 IN FLOW TIME STEP 627 STRESS PERIOD   1
     6 TOTAL ITERATIONS

 NO OUTPUT CONTROL FOR STRESS PERIOD    1   TIME STEP 627
 
 SOLVING FOR HEAD 
 FLOW MODEL IS TRANSIENT
 FLOW MODEL CONTAINS CONSTANT-HEAD CELLS


 MAXIMUM STEPSIZE DURING WHICH ANY PARTICLE CANNOT MOVE MORE THAN ONE CELL
 =  5.583    (WHEN MIN. R.F.=1)  AT K=   6, I=   1, J=  74

 MAXIMUM STEPSIZE WHICH MEETS STABILITY CRITERION OF THE ADVECTION TERM
 (FOR PURE FINITE-DIFFERENCE OPTION, MIXELM=0) 
 =  4.096    (WHEN MIN. R.F.=1)  AT K=   2, I=   1, J=  79


 TOTAL NUMBER OF POINT SOURCES/SINKS PRESENT IN THE FLOW MODEL =    62

 MAXIMUM STEPSIZE WHICH MEETS STABILITY CRITERION OF THE SINK & SOURCE TERM
 =  394.8    (WHEN MIN. R.F.=1)  AT K=   2, I=   1, J=   1

 MAXIMUM STEPSIZE WHICH MEETS STABILITY CRITERION OF THE DISPERSION TERM
 =  20.29    (WHEN MIN. R.F.=1)  AT K=   1, I=   1, J=  31
     1 CALLS TO GCG PACKAGE FOR TRANSPORT TIME STEP   2 IN FLOW TIME STEP 627 STRESS PERIOD   1
     6 TOTAL ITERATIONS
 
 SOLVING FOR HEAD 
 FLOW MODEL IS TRANSIENT
 FLOW MODEL CONTAINS CONSTANT-HEAD CELLS


 MAXIMUM STEPSIZE DURING WHICH ANY PARTICLE CANNOT MOVE MORE THAN ONE CELL
 =  5.731    (WHEN MIN. R.F.=1)  AT K=   6, I=   1, J=  74

 MAXIMUM STEPSIZE WHICH MEETS STABILITY CRITERION OF THE ADVECTION TERM
 (FOR PURE FINITE-DIFFERENCE OPTION, MIXELM=0) 
 =  3.811    (WHEN MIN. R.F.=1)  AT K=   2, I=   1, J=  78


 TOTAL NUMBER OF POINT SOURCES/SINKS PRESENT IN THE FLOW MODEL =    62

 MAXIMUM STEPSIZE WHICH MEETS STABILITY CRITERION OF THE SINK & SOURCE TERM
 =  396.2    (WHEN MIN. R.F.=1)  AT K=   2, I=   1, J=   1

 MAXIMUM STEPSIZE WHICH MEETS STABILITY CRITERION OF THE DISPERSION TERM
 =  20.29    (WHEN MIN. R.F.=1)  AT K=   1, I=   1, J=  31
     1 CALLS TO GCG PACKAGE FOR TRANSPORT TIME STEP   3 IN FLOW TIME STEP 627 STRESS PERIOD   1
     6 TOTAL ITERATIONS
 
 SOLVING FOR HEAD 
 FLOW MODEL IS TRANSIENT
 FLOW MODEL CONTAINS CONSTANT-HEAD CELLS


 MAXIMUM STEPSIZE DURING WHICH ANY PARTICLE CANNOT MOVE MORE THAN ONE CELL
 =  5.873    (WHEN MIN. R.F.=1)  AT K=   7, I=   1, J=  74

 MAXIMUM STEPSIZE WHICH MEETS STABILITY CRITERION OF THE ADVECTION TERM
 (FOR PURE FINITE-DIFFERENCE OPTION, MIXELM=0) 
 =  3.664    (WHEN MIN. R.F.=1)  AT K=   2, I=   1, J=  78


 TOTAL NUMBER OF POINT SOURCES/SINKS PRESENT IN THE FLOW MODEL =    62

 MAXIMUM STEPSIZE WHICH MEETS STABILITY CRITERION OF THE SINK & SOURCE TERM
 =  391.3    (WHEN MIN. R.F.=1)  AT K=   2, I=   1, J=   1

 MAXIMUM STEPSIZE WHICH MEETS STABILITY CRITERION OF THE DISPERSION TERM
 =  20.29    (WHEN MIN. R.F.=1)  AT K=   1, I=   1, J=  31
     1 CALLS TO GCG PACKAGE FOR TRANSPORT TIME STEP   4 IN FLOW TIME STEP 627 STRESS PERIOD   1
     5 TOTAL ITERATIONS
  MAXIMUM CONCENTRATION CHANGES FOR EACH ITERATION:
  MAX. CHANGE LAYER,ROW,COL MAX. CHANGE LAYER,ROW,COL MAX. CHANGE LAYER,ROW,COL MAX. CHANGE LAYER,ROW,COL MAX. CHANGE LAYER,ROW,COL
 ------------------------------------------------------------------------------------------------------------------------------------
   0.1477E-01 (  2,  1, 31)  0.3457E-03 (  2,  1, 79)  0.9081E-05 (  2,  1, 80)  0.2831E-06 (  3,  1, 80)  0.8227E-08 (  3,  1, 77)


                                          ================================================
                                                         FROM TIME =   6270.0     TO    6280.0    

 
 SOLVING FOR HEAD 
 FLOW MODEL IS TRANSIENT
 FLOW MODEL CONTAINS CONSTANT-HEAD CELLS


 MAXIMUM STEPSIZE DURING WHICH ANY PARTICLE CANNOT MOVE MORE THAN ONE CELL
 =  5.918    (WHEN MIN. R.F.=1)  AT K=  28, I=   1, J=  52

 MAXIMUM STEPSIZE WHICH MEETS STABILITY CRITERION OF THE ADVECTION TERM
 (FOR PURE FINITE-DIFFERENCE OPTION, MIXELM=0) 
 =  3.659    (WHEN MIN. R.F.=1)  AT K=   2, I=   1, J=  78


 TOTAL NUMBER OF POINT SOURCES/SINKS PRESENT IN THE FLOW MODEL =    62

 MAXIMUM STEPSIZE WHICH MEETS STABILITY CRITERION OF THE SINK & SOURCE TERM
 =  442.2    (WHEN MIN. R.F.=1)  AT K=   2, I=   1, J=   1

 MAXIMUM STEPSIZE WHICH MEETS STABILITY CRITERION OF THE DISPERSION TERM
 =  20.29    (WHEN MIN. R.F.=1)  AT K=   1, I=   1, J=  31


     1 CALLS TO GCG PACKAGE FOR TRANSPORT TIME STEP   1 IN FLOW TIME STEP 628 STRESS PERIOD   1
     6 TOTAL ITERATIONS

 NO OUTPUT CONTROL FOR STRESS PERIOD    1   TIME STEP 628
 
 SOLVING FOR HEAD 
 FLOW MODEL IS TRANSIENT
 FLOW MODEL CONTAINS CONSTANT-HEAD CELLS


 MAXIMUM STEPSIZE DURING WHICH ANY PARTICLE CANNOT MOVE MORE THAN ONE CELL
 =  5.917    (WHEN MIN. R.F.=1)  AT K=  28, I=   1, J=  52

 MAXIMUM STEPSIZE WHICH MEETS STABILITY CRITERION OF THE ADVECTION TERM
 (FOR PURE FINITE-DIFFERENCE OPTION, MIXELM=0) 
 =  3.717    (WHEN MIN. R.F.=1)  AT K=   2, I=   1, J=  78


 TOTAL NUMBER OF POINT SOURCES/SINKS PRESENT IN THE FLOW MODEL =    62

 MAXIMUM STEPSIZE WHICH MEETS STABILITY CRITERION OF THE SINK & SOURCE TERM
 =  410.8    (WHEN MIN. R.F.=1)  AT K=   2, I=   1, J=   1

 MAXIMUM STEPSIZE WHICH MEETS STABILITY CRITERION OF THE DISPERSION TERM
 =  20.29    (WHEN MIN. R.F.=1)  AT K=   1, I=   1, J=  31
     1 CALLS TO GCG PACKAGE FOR TRANSPORT TIME STEP   2 IN FLOW TIME STEP 628 STRESS PERIOD   1
     6 TOTAL ITERATIONS
 
 SOLVING FOR HEAD 
 FLOW MODEL IS TRANSIENT
 FLOW MODEL CONTAINS CONSTANT-HEAD CELLS


 MAXIMUM STEPSIZE DURING WHICH ANY PARTICLE CANNOT MOVE MORE THAN ONE CELL
 =  5.773    (WHEN MIN. R.F.=1)  AT K=   4, I=   1, J=  47

 MAXIMUM STEPSIZE WHICH MEETS STABILITY CRITERION OF THE ADVECTION TERM
 (FOR PURE FINITE-DIFFERENCE OPTION, MIXELM=0) 
 =  3.911    (WHEN MIN. R.F.=1)  AT K=   2, I=   1, J=  78


 TOTAL NUMBER OF POINT SOURCES/SINKS PRESENT IN THE FLOW MODEL =    62

 MAXIMUM STEPSIZE WHICH MEETS STABILITY CRITERION OF THE SINK & SOURCE TERM
 =  399.2    (WHEN MIN. R.F.=1)  AT K=   2, I=   1, J=   1

 MAXIMUM STEPSIZE WHICH MEETS STABILITY CRITERION OF THE DISPERSION TERM
 =  20.29    (WHEN MIN. R.F.=1)  AT K=   1, I=   1, J=  31
     1 CALLS TO GCG PACKAGE FOR TRANSPORT TIME STEP   3 IN FLOW TIME STEP 628 STRESS PERIOD   1
     6 TOTAL ITERATIONS
 
 SOLVING FOR HEAD 
 FLOW MODEL IS TRANSIENT
 FLOW MODEL CONTAINS CONSTANT-HEAD CELLS


 MAXIMUM STEPSIZE DURING WHICH ANY PARTICLE CANNOT MOVE MORE THAN ONE CELL
 =  5.483    (WHEN MIN. R.F.=1)  AT K=   4, I=   1, J=  47

 MAXIMUM STEPSIZE WHICH MEETS STABILITY CRITERION OF THE ADVECTION TERM
 (FOR PURE FINITE-DIFFERENCE OPTION, MIXELM=0) 
 =  4.130    (WHEN MIN. R.F.=1)  AT K=   2, I=   1, J=  40


 TOTAL NUMBER OF POINT SOURCES/SINKS PRESENT IN THE FLOW MODEL =    62

 MAXIMUM STEPSIZE WHICH MEETS STABILITY CRITERION OF THE SINK & SOURCE TERM
 =  396.5    (WHEN MIN. R.F.=1)  AT K=   2, I=   1, J=   1

 MAXIMUM STEPSIZE WHICH MEETS STABILITY CRITERION OF THE DISPERSION TERM
 =  20.29    (WHEN MIN. R.F.=1)  AT K=   1, I=   1, J=  31
     1 CALLS TO GCG PACKAGE FOR TRANSPORT TIME STEP   4 IN FLOW TIME STEP 628 STRESS PERIOD   1
     5 TOTAL ITERATIONS
  MAXIMUM CONCENTRATION CHANGES FOR EACH ITERATION:
  MAX. CHANGE LAYER,ROW,COL MAX. CHANGE LAYER,ROW,COL MAX. CHANGE LAYER,ROW,COL MAX. CHANGE LAYER,ROW,COL MAX. CHANGE LAYER,ROW,COL
 ------------------------------------------------------------------------------------------------------------------------------------
   0.1994E-01 (  2,  1, 79)  0.6588E-03 (  2,  1, 77)  0.2111E-04 (  3,  1, 77)  0.6921E-06 ( 29,  1, 28)  0.2422E-07 (  5,  1, 80)


                                          ================================================
                                                         FROM TIME =   6280.0     TO    6290.0    

 
 SOLVING FOR HEAD 
 FLOW MODEL IS TRANSIENT
 FLOW MODEL CONTAINS CONSTANT-HEAD CELLS


 MAXIMUM STEPSIZE DURING WHICH ANY PARTICLE CANNOT MOVE MORE THAN ONE CELL
 =  5.346    (WHEN MIN. R.F.=1)  AT K=   4, I=   1, J=  47

 MAXIMUM STEPSIZE WHICH MEETS STABILITY CRITERION OF THE ADVECTION TERM
 (FOR PURE FINITE-DIFFERENCE OPTION, MIXELM=0) 
 =  4.047    (WHEN MIN. R.F.=1)  AT K=   2, I=   1, J=  40


 TOTAL NUMBER OF POINT SOURCES/SINKS PRESENT IN THE FLOW MODEL =    62

 MAXIMUM STEPSIZE WHICH MEETS STABILITY CRITERION OF THE SINK & SOURCE TERM
 =  424.5    (WHEN MIN. R.F.=1)  AT K=   2, I=   1, J=   1

 MAXIMUM STEPSIZE WHICH MEETS STABILITY CRITERION OF THE DISPERSION TERM
 =  20.29    (WHEN MIN. R.F.=1)  AT K=   1, I=   1, J=  31


     1 CALLS TO GCG PACKAGE FOR TRANSPORT TIME STEP   1 IN FLOW TIME STEP 629 STRESS PERIOD   1
     6 TOTAL ITERATIONS

 NO OUTPUT CONTROL FOR STRESS PERIOD    1   TIME STEP 629
 
 SOLVING FOR HEAD 
 FLOW MODEL IS TRANSIENT
 FLOW MODEL CONTAINS CONSTANT-HEAD CELLS


 MAXIMUM STEPSIZE DURING WHICH ANY PARTICLE CANNOT MOVE MORE THAN ONE CELL
 =  5.172    (WHEN MIN. R.F.=1)  AT K=   4, I=   1, J=  47

 MAXIMUM STEPSIZE WHICH MEETS STABILITY CRITERION OF THE ADVECTION TERM
 (FOR PURE FINITE-DIFFERENCE OPTION, MIXELM=0) 
 =  3.914    (WHEN MIN. R.F.=1)  AT K=   2, I=   1, J=  77


 TOTAL NUMBER OF POINT SOURCES/SINKS PRESENT IN THE FLOW MODEL =    62

 MAXIMUM STEPSIZE WHICH MEETS STABILITY CRITERION OF THE SINK & SOURCE TERM
 =  412.7    (WHEN MIN. R.F.=1)  AT K=   2, I=   1, J=   1

 MAXIMUM STEPSIZE WHICH MEETS STABILITY CRITERION OF THE DISPERSION TERM
 =  20.29    (WHEN MIN. R.F.=1)  AT K=   1, I=   1, J=  31
     1 CALLS TO GCG PACKAGE FOR TRANSPORT TIME STEP   2 IN FLOW TIME STEP 629 STRESS PERIOD   1
     6 TOTAL ITERATIONS
 
 SOLVING FOR HEAD 
 FLOW MODEL IS TRANSIENT
 FLOW MODEL CONTAINS CONSTANT-HEAD CELLS


 MAXIMUM STEPSIZE DURING WHICH ANY PARTICLE CANNOT MOVE MORE THAN ONE CELL
 =  5.085    (WHEN MIN. R.F.=1)  AT K=   4, I=   1, J=  47

 MAXIMUM STEPSIZE WHICH MEETS STABILITY CRITERION OF THE ADVECTION TERM
 (FOR PURE FINITE-DIFFERENCE OPTION, MIXELM=0) 
 =  3.867    (WHEN MIN. R.F.=1)  AT K=   2, I=   1, J=  77


 TOTAL NUMBER OF POINT SOURCES/SINKS PRESENT IN THE FLOW MODEL =    62

 MAXIMUM STEPSIZE WHICH MEETS STABILITY CRITERION OF THE SINK & SOURCE TERM
 =  407.4    (WHEN MIN. R.F.=1)  AT K=   2, I=   1, J=   1

 MAXIMUM STEPSIZE WHICH MEETS STABILITY CRITERION OF THE DISPERSION TERM
 =  20.29    (WHEN MIN. R.F.=1)  AT K=   1, I=   1, J=  31
     1 CALLS TO GCG PACKAGE FOR TRANSPORT TIME STEP   3 IN FLOW TIME STEP 629 STRESS PERIOD   1
     6 TOTAL ITERATIONS
 
 SOLVING FOR HEAD 
 FLOW MODEL IS TRANSIENT
 FLOW MODEL CONTAINS CONSTANT-HEAD CELLS


 MAXIMUM STEPSIZE DURING WHICH ANY PARTICLE CANNOT MOVE MORE THAN ONE CELL
 =  5.074    (WHEN MIN. R.F.=1)  AT K=   4, I=   1, J=  47

 MAXIMUM STEPSIZE WHICH MEETS STABILITY CRITERION OF THE ADVECTION TERM
 (FOR PURE FINITE-DIFFERENCE OPTION, MIXELM=0) 
 =  3.925    (WHEN MIN. R.F.=1)  AT K=   2, I=   1, J=  41


 TOTAL NUMBER OF POINT SOURCES/SINKS PRESENT IN THE FLOW MODEL =    62

 MAXIMUM STEPSIZE WHICH MEETS STABILITY CRITERION OF THE SINK & SOURCE TERM
 =  393.6    (WHEN MIN. R.F.=1)  AT K=   2, I=   1, J=   1

 MAXIMUM STEPSIZE WHICH MEETS STABILITY CRITERION OF THE DISPERSION TERM
 =  20.29    (WHEN MIN. R.F.=1)  AT K=   1, I=   1, J=  31
     1 CALLS TO GCG PACKAGE FOR TRANSPORT TIME STEP   4 IN FLOW TIME STEP 629 STRESS PERIOD   1
     4 TOTAL ITERATIONS
  MAXIMUM CONCENTRATION CHANGES FOR EACH ITERATION:
  MAX. CHANGE LAYER,ROW,COL MAX. CHANGE LAYER,ROW,COL MAX. CHANGE LAYER,ROW,COL MAX. CHANGE LAYER,ROW,COL MAX. CHANGE LAYER,ROW,COL
 ------------------------------------------------------------------------------------------------------------------------------------
   0.1141E-01 (  2,  1, 78)  0.1696E-03 (  2,  1, 78)  0.3418E-05 (  2,  1, 79)  0.7715E-07 (  3,  1, 79)


                                          ================================================
                                                         FROM TIME =   6290.0     TO    6300.0    

 
 SOLVING FOR HEAD 
 FLOW MODEL IS TRANSIENT
 FLOW MODEL CONTAINS CONSTANT-HEAD CELLS


 MAXIMUM STEPSIZE DURING WHICH ANY PARTICLE CANNOT MOVE MORE THAN ONE CELL
 =  5.089    (WHEN MIN. R.F.=1)  AT K=   4, I=   1, J=  47

 MAXIMUM STEPSIZE WHICH MEETS STABILITY CRITERION OF THE ADVECTION TERM
 (FOR PURE FINITE-DIFFERENCE OPTION, MIXELM=0) 
 =  3.870    (WHEN MIN. R.F.=1)  AT K=   2, I=   1, J=  41


 TOTAL NUMBER OF POINT SOURCES/SINKS PRESENT IN THE FLOW MODEL =    62

 MAXIMUM STEPSIZE WHICH MEETS STABILITY CRITERION OF THE SINK & SOURCE TERM
 =  425.2    (WHEN MIN. R.F.=1)  AT K=   2, I=   1, J=   1

 MAXIMUM STEPSIZE WHICH MEETS STABILITY CRITERION OF THE DISPERSION TERM
 =  20.29    (WHEN MIN. R.F.=1)  AT K=   1, I=   1, J=  31


     1 CALLS TO GCG PACKAGE FOR TRANSPORT TIME STEP   1 IN FLOW TIME STEP 630 STRESS PERIOD   1
     6 TOTAL ITERATIONS

 NO OUTPUT CONTROL FOR STRESS PERIOD    1   TIME STEP 630
 
 SOLVING FOR HEAD 
 FLOW MODEL IS TRANSIENT
 FLOW MODEL CONTAINS CONSTANT-HEAD CELLS


 MAXIMUM STEPSIZE DURING WHICH ANY PARTICLE CANNOT MOVE MORE THAN ONE CELL
 =  5.155    (WHEN MIN. R.F.=1)  AT K=   4, I=   1, J=  47

 MAXIMUM STEPSIZE WHICH MEETS STABILITY CRITERION OF THE ADVECTION TERM
 (FOR PURE FINITE-DIFFERENCE OPTION, MIXELM=0) 
 =  3.791    (WHEN MIN. R.F.=1)  AT K=   2, I=   1, J=  41


 TOTAL NUMBER OF POINT SOURCES/SINKS PRESENT IN THE FLOW MODEL =    62

 MAXIMUM STEPSIZE WHICH MEETS STABILITY CRITERION OF THE SINK & SOURCE TERM
 =  392.0    (WHEN MIN. R.F.=1)  AT K=   2, I=   1, J=   1

 MAXIMUM STEPSIZE WHICH MEETS STABILITY CRITERION OF THE DISPERSION TERM
 =  20.29    (WHEN MIN. R.F.=1)  AT K=   1, I=   1, J=  31
     1 CALLS TO GCG PACKAGE FOR TRANSPORT TIME STEP   2 IN FLOW TIME STEP 630 STRESS PERIOD   1
     6 TOTAL ITERATIONS
 
 SOLVING FOR HEAD 
 FLOW MODEL IS TRANSIENT
 FLOW MODEL CONTAINS CONSTANT-HEAD CELLS


 MAXIMUM STEPSIZE DURING WHICH ANY PARTICLE CANNOT MOVE MORE THAN ONE CELL
 =  5.213    (WHEN MIN. R.F.=1)  AT K=   5, I=   1, J=  47

 MAXIMUM STEPSIZE WHICH MEETS STABILITY CRITERION OF THE ADVECTION TERM
 (FOR PURE FINITE-DIFFERENCE OPTION, MIXELM=0) 
 =  3.854    (WHEN MIN. R.F.=1)  AT K=   2, I=   1, J=  41


 TOTAL NUMBER OF POINT SOURCES/SINKS PRESENT IN THE FLOW MODEL =    62

 MAXIMUM STEPSIZE WHICH MEETS STABILITY CRITERION OF THE SINK & SOURCE TERM
 =  416.0    (WHEN MIN. R.F.=1)  AT K=   2, I=   1, J=   1

 MAXIMUM STEPSIZE WHICH MEETS STABILITY CRITERION OF THE DISPERSION TERM
 =  20.29    (WHEN MIN. R.F.=1)  AT K=   1, I=   1, J=  31
     1 CALLS TO GCG PACKAGE FOR TRANSPORT TIME STEP   3 IN FLOW TIME STEP 630 STRESS PERIOD   1
     6 TOTAL ITERATIONS
 
 SOLVING FOR HEAD 
 FLOW MODEL IS TRANSIENT
 FLOW MODEL CONTAINS CONSTANT-HEAD CELLS


 MAXIMUM STEPSIZE DURING WHICH ANY PARTICLE CANNOT MOVE MORE THAN ONE CELL
 =  5.298    (WHEN MIN. R.F.=1)  AT K=   5, I=   1, J=  47

 MAXIMUM STEPSIZE WHICH MEETS STABILITY CRITERION OF THE ADVECTION TERM
 (FOR PURE FINITE-DIFFERENCE OPTION, MIXELM=0) 
 =  4.118    (WHEN MIN. R.F.=1)  AT K=   2, I=   1, J=  41


 TOTAL NUMBER OF POINT SOURCES/SINKS PRESENT IN THE FLOW MODEL =    62

 MAXIMUM STEPSIZE WHICH MEETS STABILITY CRITERION OF THE SINK & SOURCE TERM
 =  422.4    (WHEN MIN. R.F.=1)  AT K=   2, I=   1, J=   1

 MAXIMUM STEPSIZE WHICH MEETS STABILITY CRITERION OF THE DISPERSION TERM
 =  20.29    (WHEN MIN. R.F.=1)  AT K=   1, I=   1, J=  31
     1 CALLS TO GCG PACKAGE FOR TRANSPORT TIME STEP   4 IN FLOW TIME STEP 630 STRESS PERIOD   1
     5 TOTAL ITERATIONS
  MAXIMUM CONCENTRATION CHANGES FOR EACH ITERATION:
  MAX. CHANGE LAYER,ROW,COL MAX. CHANGE LAYER,ROW,COL MAX. CHANGE LAYER,ROW,COL MAX. CHANGE LAYER,ROW,COL MAX. CHANGE LAYER,ROW,COL
 ------------------------------------------------------------------------------------------------------------------------------------
   0.1455E-01 (  2,  1, 40)  0.3071E-03 (  2,  1, 76)  0.8876E-05 (  3,  1, 42)  0.2591E-06 (  3,  1, 45)  0.5986E-08 (  4,  1, 75)


                                          ================================================
                                                         FROM TIME =   6300.0     TO    6310.0    

 
 SOLVING FOR HEAD 
 FLOW MODEL IS TRANSIENT
 FLOW MODEL CONTAINS CONSTANT-HEAD CELLS


 MAXIMUM STEPSIZE DURING WHICH ANY PARTICLE CANNOT MOVE MORE THAN ONE CELL
 =  5.352    (WHEN MIN. R.F.=1)  AT K=   5, I=   1, J=  47

 MAXIMUM STEPSIZE WHICH MEETS STABILITY CRITERION OF THE ADVECTION TERM
 (FOR PURE FINITE-DIFFERENCE OPTION, MIXELM=0) 
 =  4.020    (WHEN MIN. R.F.=1)  AT K=   2, I=   1, J=  42


 TOTAL NUMBER OF POINT SOURCES/SINKS PRESENT IN THE FLOW MODEL =    62

 MAXIMUM STEPSIZE WHICH MEETS STABILITY CRITERION OF THE SINK & SOURCE TERM
 =  463.5    (WHEN MIN. R.F.=1)  AT K=   2, I=   1, J=   1

 MAXIMUM STEPSIZE WHICH MEETS STABILITY CRITERION OF THE DISPERSION TERM
 =  20.29    (WHEN MIN. R.F.=1)  AT K=   1, I=   1, J=  31


     1 CALLS TO GCG PACKAGE FOR TRANSPORT TIME STEP   1 IN FLOW TIME STEP 631 STRESS PERIOD   1
     6 TOTAL ITERATIONS

 NO OUTPUT CONTROL FOR STRESS PERIOD    1   TIME STEP 631
 
 SOLVING FOR HEAD 
 FLOW MODEL IS TRANSIENT
 FLOW MODEL CONTAINS CONSTANT-HEAD CELLS


 MAXIMUM STEPSIZE DURING WHICH ANY PARTICLE CANNOT MOVE MORE THAN ONE CELL
 =  5.504    (WHEN MIN. R.F.=1)  AT K=   5, I=   1, J=  47

 MAXIMUM STEPSIZE WHICH MEETS STABILITY CRITERION OF THE ADVECTION TERM
 (FOR PURE FINITE-DIFFERENCE OPTION, MIXELM=0) 
 =  3.786    (WHEN MIN. R.F.=1)  AT K=   2, I=   1, J=  42


 TOTAL NUMBER OF POINT SOURCES/SINKS PRESENT IN THE FLOW MODEL =    62

 MAXIMUM STEPSIZE WHICH MEETS STABILITY CRITERION OF THE SINK & SOURCE TERM
 =  417.0    (WHEN MIN. R.F.=1)  AT K=   2, I=   1, J=   1

 MAXIMUM STEPSIZE WHICH MEETS STABILITY CRITERION OF THE DISPERSION TERM
 =  20.29    (WHEN MIN. R.F.=1)  AT K=   1, I=   1, J=  31
     1 CALLS TO GCG PACKAGE FOR TRANSPORT TIME STEP   2 IN FLOW TIME STEP 631 STRESS PERIOD   1
     6 TOTAL ITERATIONS
 
 SOLVING FOR HEAD 
 FLOW MODEL IS TRANSIENT
 FLOW MODEL CONTAINS CONSTANT-HEAD CELLS


 MAXIMUM STEPSIZE DURING WHICH ANY PARTICLE CANNOT MOVE MORE THAN ONE CELL
 =  5.623    (WHEN MIN. R.F.=1)  AT K=   6, I=   1, J=  47

 MAXIMUM STEPSIZE WHICH MEETS STABILITY CRITERION OF THE ADVECTION TERM
 (FOR PURE FINITE-DIFFERENCE OPTION, MIXELM=0) 
 =  3.738    (WHEN MIN. R.F.=1)  AT K=   2, I=   1, J=  42


 TOTAL NUMBER OF POINT SOURCES/SINKS PRESENT IN THE FLOW MODEL =    62

 MAXIMUM STEPSIZE WHICH MEETS STABILITY CRITERION OF THE SINK & SOURCE TERM
 =  416.3    (WHEN MIN. R.F.=1)  AT K=   2, I=   1, J=   1

 MAXIMUM STEPSIZE WHICH MEETS STABILITY CRITERION OF THE DISPERSION TERM
 =  20.29    (WHEN MIN. R.F.=1)  AT K=   1, I=   1, J=  31
     1 CALLS TO GCG PACKAGE FOR TRANSPORT TIME STEP   3 IN FLOW TIME STEP 631 STRESS PERIOD   1
     6 TOTAL ITERATIONS
 
 SOLVING FOR HEAD 
 FLOW MODEL IS TRANSIENT
 FLOW MODEL CONTAINS CONSTANT-HEAD CELLS


 MAXIMUM STEPSIZE DURING WHICH ANY PARTICLE CANNOT MOVE MORE THAN ONE CELL
 =  5.755    (WHEN MIN. R.F.=1)  AT K=   6, I=   1, J=  47

 MAXIMUM STEPSIZE WHICH MEETS STABILITY CRITERION OF THE ADVECTION TERM
 (FOR PURE FINITE-DIFFERENCE OPTION, MIXELM=0) 
 =  3.808    (WHEN MIN. R.F.=1)  AT K=   2, I=   1, J=  42


 TOTAL NUMBER OF POINT SOURCES/SINKS PRESENT IN THE FLOW MODEL =    62

 MAXIMUM STEPSIZE WHICH MEETS STABILITY CRITERION OF THE SINK & SOURCE TERM
 =  422.8    (WHEN MIN. R.F.=1)  AT K=   2, I=   1, J=   1

 MAXIMUM STEPSIZE WHICH MEETS STABILITY CRITERION OF THE DISPERSION TERM
 =  20.29    (WHEN MIN. R.F.=1)  AT K=   1, I=   1, J=  31
     1 CALLS TO GCG PACKAGE FOR TRANSPORT TIME STEP   4 IN FLOW TIME STEP 631 STRESS PERIOD   1
     5 TOTAL ITERATIONS
  MAXIMUM CONCENTRATION CHANGES FOR EACH ITERATION:
  MAX. CHANGE LAYER,ROW,COL MAX. CHANGE LAYER,ROW,COL MAX. CHANGE LAYER,ROW,COL MAX. CHANGE LAYER,ROW,COL MAX. CHANGE LAYER,ROW,COL
 ------------------------------------------------------------------------------------------------------------------------------------
   0.1270E-01 (  2,  1, 77)  0.1788E-03 (  3,  1, 79)  0.4805E-05 (  3,  1, 43)  0.1596E-06 (  3,  1, 45)  0.2648E-08 (  4,  1, 45)


                                          ================================================
                                                         FROM TIME =   6310.0     TO    6320.0    

 
 SOLVING FOR HEAD 
 FLOW MODEL IS TRANSIENT
 FLOW MODEL CONTAINS CONSTANT-HEAD CELLS


 MAXIMUM STEPSIZE DURING WHICH ANY PARTICLE CANNOT MOVE MORE THAN ONE CELL
 =  5.815    (WHEN MIN. R.F.=1)  AT K=   6, I=   1, J=  47

 MAXIMUM STEPSIZE WHICH MEETS STABILITY CRITERION OF THE ADVECTION TERM
 (FOR PURE FINITE-DIFFERENCE OPTION, MIXELM=0) 
 =  3.878    (WHEN MIN. R.F.=1)  AT K=   2, I=   1, J=  42


 TOTAL NUMBER OF POINT SOURCES/SINKS PRESENT IN THE FLOW MODEL =    62

 MAXIMUM STEPSIZE WHICH MEETS STABILITY CRITERION OF THE SINK & SOURCE TERM
 =  489.2    (WHEN MIN. R.F.=1)  AT K=   2, I=   1, J=   1

 MAXIMUM STEPSIZE WHICH MEETS STABILITY CRITERION OF THE DISPERSION TERM
 =  20.29    (WHEN MIN. R.F.=1)  AT K=   1, I=   1, J=  31


     1 CALLS TO GCG PACKAGE FOR TRANSPORT TIME STEP   1 IN FLOW TIME STEP 632 STRESS PERIOD   1
     6 TOTAL ITERATIONS

 NO OUTPUT CONTROL FOR STRESS PERIOD    1   TIME STEP 632
 
 SOLVING FOR HEAD 
 FLOW MODEL IS TRANSIENT
 FLOW MODEL CONTAINS CONSTANT-HEAD CELLS


 MAXIMUM STEPSIZE DURING WHICH ANY PARTICLE CANNOT MOVE MORE THAN ONE CELL
 =  5.916    (WHEN MIN. R.F.=1)  AT K=  28, I=   1, J=  52

 MAXIMUM STEPSIZE WHICH MEETS STABILITY CRITERION OF THE ADVECTION TERM
 (FOR PURE FINITE-DIFFERENCE OPTION, MIXELM=0) 
 =  4.191    (WHEN MIN. R.F.=1)  AT K=   2, I=   1, J=  42


 TOTAL NUMBER OF POINT SOURCES/SINKS PRESENT IN THE FLOW MODEL =    62

 MAXIMUM STEPSIZE WHICH MEETS STABILITY CRITERION OF THE SINK & SOURCE TERM
 =  442.4    (WHEN MIN. R.F.=1)  AT K=   2, I=   1, J=   1

 MAXIMUM STEPSIZE WHICH MEETS STABILITY CRITERION OF THE DISPERSION TERM
 =  20.29    (WHEN MIN. R.F.=1)  AT K=   1, I=   1, J=  31
     1 CALLS TO GCG PACKAGE FOR TRANSPORT TIME STEP   2 IN FLOW TIME STEP 632 STRESS PERIOD   1
     6 TOTAL ITERATIONS
 
 SOLVING FOR HEAD 
 FLOW MODEL IS TRANSIENT
 FLOW MODEL CONTAINS CONSTANT-HEAD CELLS


 MAXIMUM STEPSIZE DURING WHICH ANY PARTICLE CANNOT MOVE MORE THAN ONE CELL
 =  5.914    (WHEN MIN. R.F.=1)  AT K=  28, I=   1, J=  52

 MAXIMUM STEPSIZE WHICH MEETS STABILITY CRITERION OF THE ADVECTION TERM
 (FOR PURE FINITE-DIFFERENCE OPTION, MIXELM=0) 
 =  3.907    (WHEN MIN. R.F.=1)  AT K=   2, I=   1, J=  43


 TOTAL NUMBER OF POINT SOURCES/SINKS PRESENT IN THE FLOW MODEL =    62

 MAXIMUM STEPSIZE WHICH MEETS STABILITY CRITERION OF THE SINK & SOURCE TERM
 =  439.7    (WHEN MIN. R.F.=1)  AT K=   2, I=   1, J=   1

 MAXIMUM STEPSIZE WHICH MEETS STABILITY CRITERION OF THE DISPERSION TERM
 =  20.29    (WHEN MIN. R.F.=1)  AT K=   1, I=   1, J=  31
     1 CALLS TO GCG PACKAGE FOR TRANSPORT TIME STEP   3 IN FLOW TIME STEP 632 STRESS PERIOD   1
     6 TOTAL ITERATIONS
 
 SOLVING FOR HEAD 
 FLOW MODEL IS TRANSIENT
 FLOW MODEL CONTAINS CONSTANT-HEAD CELLS


 MAXIMUM STEPSIZE DURING WHICH ANY PARTICLE CANNOT MOVE MORE THAN ONE CELL
 =  5.910    (WHEN MIN. R.F.=1)  AT K=  28, I=   1, J=  52

 MAXIMUM STEPSIZE WHICH MEETS STABILITY CRITERION OF THE ADVECTION TERM
 (FOR PURE FINITE-DIFFERENCE OPTION, MIXELM=0) 
 =  3.786    (WHEN MIN. R.F.=1)  AT K=   2, I=   1, J=  43


 TOTAL NUMBER OF POINT SOURCES/SINKS PRESENT IN THE FLOW MODEL =    62

 MAXIMUM STEPSIZE WHICH MEETS STABILITY CRITERION OF THE SINK & SOURCE TERM
 =  426.5    (WHEN MIN. R.F.=1)  AT K=   2, I=   1, J=   1

 MAXIMUM STEPSIZE WHICH MEETS STABILITY CRITERION OF THE DISPERSION TERM
 =  20.29    (WHEN MIN. R.F.=1)  AT K=   1, I=   1, J=  31
     1 CALLS TO GCG PACKAGE FOR TRANSPORT TIME STEP   4 IN FLOW TIME STEP 632 STRESS PERIOD   1
     5 TOTAL ITERATIONS
  MAXIMUM CONCENTRATION CHANGES FOR EACH ITERATION:
  MAX. CHANGE LAYER,ROW,COL MAX. CHANGE LAYER,ROW,COL MAX. CHANGE LAYER,ROW,COL MAX. CHANGE LAYER,ROW,COL MAX. CHANGE LAYER,ROW,COL
 ------------------------------------------------------------------------------------------------------------------------------------
   0.1360E-01 (  2,  1, 83)  0.2125E-03 (  3,  1, 78)  0.4236E-05 (  2,  1, 77)  0.1237E-06 (  3,  1, 77)  0.2804E-08 (  4,  1, 74)


                                          ================================================
                                                         FROM TIME =   6320.0     TO    6330.0    

 
 SOLVING FOR HEAD 
 FLOW MODEL IS TRANSIENT
 FLOW MODEL CONTAINS CONSTANT-HEAD CELLS


 MAXIMUM STEPSIZE DURING WHICH ANY PARTICLE CANNOT MOVE MORE THAN ONE CELL
 =  5.818    (WHEN MIN. R.F.=1)  AT K=   4, I=   1, J=  74

 MAXIMUM STEPSIZE WHICH MEETS STABILITY CRITERION OF THE ADVECTION TERM
 (FOR PURE FINITE-DIFFERENCE OPTION, MIXELM=0) 
 =  3.785    (WHEN MIN. R.F.=1)  AT K=   2, I=   1, J=  43


 TOTAL NUMBER OF POINT SOURCES/SINKS PRESENT IN THE FLOW MODEL =    62

 MAXIMUM STEPSIZE WHICH MEETS STABILITY CRITERION OF THE SINK & SOURCE TERM
 =  482.0    (WHEN MIN. R.F.=1)  AT K=   2, I=   1, J=   1

 MAXIMUM STEPSIZE WHICH MEETS STABILITY CRITERION OF THE DISPERSION TERM
 =  20.29    (WHEN MIN. R.F.=1)  AT K=   1, I=   1, J=  31


     1 CALLS TO GCG PACKAGE FOR TRANSPORT TIME STEP   1 IN FLOW TIME STEP 633 STRESS PERIOD   1
     6 TOTAL ITERATIONS

 NO OUTPUT CONTROL FOR STRESS PERIOD    1   TIME STEP 633
 
 SOLVING FOR HEAD 
 FLOW MODEL IS TRANSIENT
 FLOW MODEL CONTAINS CONSTANT-HEAD CELLS


 MAXIMUM STEPSIZE DURING WHICH ANY PARTICLE CANNOT MOVE MORE THAN ONE CELL
 =  5.560    (WHEN MIN. R.F.=1)  AT K=   4, I=   1, J=  74

 MAXIMUM STEPSIZE WHICH MEETS STABILITY CRITERION OF THE ADVECTION TERM
 (FOR PURE FINITE-DIFFERENCE OPTION, MIXELM=0) 
 =  3.850    (WHEN MIN. R.F.=1)  AT K=   2, I=   1, J=  43


 TOTAL NUMBER OF POINT SOURCES/SINKS PRESENT IN THE FLOW MODEL =    62

 MAXIMUM STEPSIZE WHICH MEETS STABILITY CRITERION OF THE SINK & SOURCE TERM
 =  451.0    (WHEN MIN. R.F.=1)  AT K=   2, I=   1, J=   1

 MAXIMUM STEPSIZE WHICH MEETS STABILITY CRITERION OF THE DISPERSION TERM
 =  20.29    (WHEN MIN. R.F.=1)  AT K=   1, I=   1, J=  31
     1 CALLS TO GCG PACKAGE FOR TRANSPORT TIME STEP   2 IN FLOW TIME STEP 633 STRESS PERIOD   1
     6 TOTAL ITERATIONS
 
 SOLVING FOR HEAD 
 FLOW MODEL IS TRANSIENT
 FLOW MODEL CONTAINS CONSTANT-HEAD CELLS


 MAXIMUM STEPSIZE DURING WHICH ANY PARTICLE CANNOT MOVE MORE THAN ONE CELL
 =  5.355    (WHEN MIN. R.F.=1)  AT K=   4, I=   1, J=  74

 MAXIMUM STEPSIZE WHICH MEETS STABILITY CRITERION OF THE ADVECTION TERM
 (FOR PURE FINITE-DIFFERENCE OPTION, MIXELM=0) 
 =  3.969    (WHEN MIN. R.F.=1)  AT K=   2, I=   1, J=  81


 TOTAL NUMBER OF POINT SOURCES/SINKS PRESENT IN THE FLOW MODEL =    62

 MAXIMUM STEPSIZE WHICH MEETS STABILITY CRITERION OF THE SINK & SOURCE TERM
 =  484.0    (WHEN MIN. R.F.=1)  AT K=   2, I=   1, J=   1

 MAXIMUM STEPSIZE WHICH MEETS STABILITY CRITERION OF THE DISPERSION TERM
 =  20.29    (WHEN MIN. R.F.=1)  AT K=   1, I=   1, J=  31
     1 CALLS TO GCG PACKAGE FOR TRANSPORT TIME STEP   3 IN FLOW TIME STEP 633 STRESS PERIOD   1
     6 TOTAL ITERATIONS
 
 SOLVING FOR HEAD 
 FLOW MODEL IS TRANSIENT
 FLOW MODEL CONTAINS CONSTANT-HEAD CELLS


 MAXIMUM STEPSIZE DURING WHICH ANY PARTICLE CANNOT MOVE MORE THAN ONE CELL
 =  5.199    (WHEN MIN. R.F.=1)  AT K=   4, I=   1, J=  74

 MAXIMUM STEPSIZE WHICH MEETS STABILITY CRITERION OF THE ADVECTION TERM
 (FOR PURE FINITE-DIFFERENCE OPTION, MIXELM=0) 
 =  3.925    (WHEN MIN. R.F.=1)  AT K=   2, I=   1, J=  81


 TOTAL NUMBER OF POINT SOURCES/SINKS PRESENT IN THE FLOW MODEL =    62

 MAXIMUM STEPSIZE WHICH MEETS STABILITY CRITERION OF THE SINK & SOURCE TERM
 =  495.7    (WHEN MIN. R.F.=1)  AT K=   2, I=   1, J=   1

 MAXIMUM STEPSIZE WHICH MEETS STABILITY CRITERION OF THE DISPERSION TERM
 =  20.29    (WHEN MIN. R.F.=1)  AT K=   1, I=   1, J=  31
     1 CALLS TO GCG PACKAGE FOR TRANSPORT TIME STEP   4 IN FLOW TIME STEP 633 STRESS PERIOD   1
     5 TOTAL ITERATIONS
  MAXIMUM CONCENTRATION CHANGES FOR EACH ITERATION:
  MAX. CHANGE LAYER,ROW,COL MAX. CHANGE LAYER,ROW,COL MAX. CHANGE LAYER,ROW,COL MAX. CHANGE LAYER,ROW,COL MAX. CHANGE LAYER,ROW,COL
 ------------------------------------------------------------------------------------------------------------------------------------
   0.1864E-01 (  2,  1, 82)  0.4286E-03 (  2,  1, 82)  0.1289E-04 (  2,  1, 83)  0.4005E-06 (  3,  1, 83)  0.9908E-08 (  3,  1, 33)


                                          ================================================
                                                         FROM TIME =   6330.0     TO    6340.0    

 
 SOLVING FOR HEAD 
 FLOW MODEL IS TRANSIENT
 FLOW MODEL CONTAINS CONSTANT-HEAD CELLS


 MAXIMUM STEPSIZE DURING WHICH ANY PARTICLE CANNOT MOVE MORE THAN ONE CELL
 =  5.139    (WHEN MIN. R.F.=1)  AT K=   4, I=   1, J=  74

 MAXIMUM STEPSIZE WHICH MEETS STABILITY CRITERION OF THE ADVECTION TERM
 (FOR PURE FINITE-DIFFERENCE OPTION, MIXELM=0) 
 =  4.017    (WHEN MIN. R.F.=1)  AT K=   2, I=   1, J=  81


 TOTAL NUMBER OF POINT SOURCES/SINKS PRESENT IN THE FLOW MODEL =    62

 MAXIMUM STEPSIZE WHICH MEETS STABILITY CRITERION OF THE SINK & SOURCE TERM
 =  526.0    (WHEN MIN. R.F.=1)  AT K=   2, I=   1, J=   1

 MAXIMUM STEPSIZE WHICH MEETS STABILITY CRITERION OF THE DISPERSION TERM
 =  20.29    (WHEN MIN. R.F.=1)  AT K=   1, I=   1, J=  31


     1 CALLS TO GCG PACKAGE FOR TRANSPORT TIME STEP   1 IN FLOW TIME STEP 634 STRESS PERIOD   1
     6 TOTAL ITERATIONS

 NO OUTPUT CONTROL FOR STRESS PERIOD    1   TIME STEP 634
 
 SOLVING FOR HEAD 
 FLOW MODEL IS TRANSIENT
 FLOW MODEL CONTAINS CONSTANT-HEAD CELLS


 MAXIMUM STEPSIZE DURING WHICH ANY PARTICLE CANNOT MOVE MORE THAN ONE CELL
 =  5.051    (WHEN MIN. R.F.=1)  AT K=   4, I=   1, J=  74

 MAXIMUM STEPSIZE WHICH MEETS STABILITY CRITERION OF THE ADVECTION TERM
 (FOR PURE FINITE-DIFFERENCE OPTION, MIXELM=0) 
 =  4.011    (WHEN MIN. R.F.=1)  AT K=   2, I=   1, J=  44


 TOTAL NUMBER OF POINT SOURCES/SINKS PRESENT IN THE FLOW MODEL =    62

 MAXIMUM STEPSIZE WHICH MEETS STABILITY CRITERION OF THE SINK & SOURCE TERM
 =  485.6    (WHEN MIN. R.F.=1)  AT K=   2, I=   1, J=   1

 MAXIMUM STEPSIZE WHICH MEETS STABILITY CRITERION OF THE DISPERSION TERM
 =  20.29    (WHEN MIN. R.F.=1)  AT K=   1, I=   1, J=  31
     1 CALLS TO GCG PACKAGE FOR TRANSPORT TIME STEP   2 IN FLOW TIME STEP 634 STRESS PERIOD   1
     6 TOTAL ITERATIONS
 
 SOLVING FOR HEAD 
 FLOW MODEL IS TRANSIENT
 FLOW MODEL CONTAINS CONSTANT-HEAD CELLS


 MAXIMUM STEPSIZE DURING WHICH ANY PARTICLE CANNOT MOVE MORE THAN ONE CELL
 =  5.009    (WHEN MIN. R.F.=1)  AT K=   4, I=   1, J=  74

 MAXIMUM STEPSIZE WHICH MEETS STABILITY CRITERION OF THE ADVECTION TERM
 (FOR PURE FINITE-DIFFERENCE OPTION, MIXELM=0) 
 =  3.730    (WHEN MIN. R.F.=1)  AT K=   2, I=   1, J=  80


 TOTAL NUMBER OF POINT SOURCES/SINKS PRESENT IN THE FLOW MODEL =    62

 MAXIMUM STEPSIZE WHICH MEETS STABILITY CRITERION OF THE SINK & SOURCE TERM
 =  495.6    (WHEN MIN. R.F.=1)  AT K=   2, I=   1, J=   1

 MAXIMUM STEPSIZE WHICH MEETS STABILITY CRITERION OF THE DISPERSION TERM
 =  20.29    (WHEN MIN. R.F.=1)  AT K=   1, I=   1, J=  31
     1 CALLS TO GCG PACKAGE FOR TRANSPORT TIME STEP   3 IN FLOW TIME STEP 634 STRESS PERIOD   1
     6 TOTAL ITERATIONS
 
 SOLVING FOR HEAD 
 FLOW MODEL IS TRANSIENT
 FLOW MODEL CONTAINS CONSTANT-HEAD CELLS


 MAXIMUM STEPSIZE DURING WHICH ANY PARTICLE CANNOT MOVE MORE THAN ONE CELL
 =  5.010    (WHEN MIN. R.F.=1)  AT K=   4, I=   1, J=  74

 MAXIMUM STEPSIZE WHICH MEETS STABILITY CRITERION OF THE ADVECTION TERM
 (FOR PURE FINITE-DIFFERENCE OPTION, MIXELM=0) 
 =  3.635    (WHEN MIN. R.F.=1)  AT K=   2, I=   1, J=  80


 TOTAL NUMBER OF POINT SOURCES/SINKS PRESENT IN THE FLOW MODEL =    62

 MAXIMUM STEPSIZE WHICH MEETS STABILITY CRITERION OF THE SINK & SOURCE TERM
 =  506.1    (WHEN MIN. R.F.=1)  AT K=   2, I=   1, J=   1

 MAXIMUM STEPSIZE WHICH MEETS STABILITY CRITERION OF THE DISPERSION TERM
 =  20.29    (WHEN MIN. R.F.=1)  AT K=   1, I=   1, J=  31
     1 CALLS TO GCG PACKAGE FOR TRANSPORT TIME STEP   4 IN FLOW TIME STEP 634 STRESS PERIOD   1
     5 TOTAL ITERATIONS
  MAXIMUM CONCENTRATION CHANGES FOR EACH ITERATION:
  MAX. CHANGE LAYER,ROW,COL MAX. CHANGE LAYER,ROW,COL MAX. CHANGE LAYER,ROW,COL MAX. CHANGE LAYER,ROW,COL MAX. CHANGE LAYER,ROW,COL
 ------------------------------------------------------------------------------------------------------------------------------------
   0.1200E-01 (  2,  1, 81)  0.1996E-03 (  2,  1, 81)  0.4928E-05 (  3,  1, 79)  0.1281E-06 (  3,  1, 77)  0.2570E-08 (  4,  1, 77)


                                          ================================================
                                                         FROM TIME =   6340.0     TO    6350.0    

 
 SOLVING FOR HEAD 
 FLOW MODEL IS TRANSIENT
 FLOW MODEL CONTAINS CONSTANT-HEAD CELLS


 MAXIMUM STEPSIZE DURING WHICH ANY PARTICLE CANNOT MOVE MORE THAN ONE CELL
 =  5.024    (WHEN MIN. R.F.=1)  AT K=   4, I=   1, J=  74

 MAXIMUM STEPSIZE WHICH MEETS STABILITY CRITERION OF THE ADVECTION TERM
 (FOR PURE FINITE-DIFFERENCE OPTION, MIXELM=0) 
 =  3.651    (WHEN MIN. R.F.=1)  AT K=   2, I=   1, J=  80


 TOTAL NUMBER OF POINT SOURCES/SINKS PRESENT IN THE FLOW MODEL =    62

 MAXIMUM STEPSIZE WHICH MEETS STABILITY CRITERION OF THE SINK & SOURCE TERM
 =  632.8    (WHEN MIN. R.F.=1)  AT K=   2, I=   1, J=   1

 MAXIMUM STEPSIZE WHICH MEETS STABILITY CRITERION OF THE DISPERSION TERM
 =  20.29    (WHEN MIN. R.F.=1)  AT K=   1, I=   1, J=  31


     1 CALLS TO GCG PACKAGE FOR TRANSPORT TIME STEP   1 IN FLOW TIME STEP 635 STRESS PERIOD   1
     6 TOTAL ITERATIONS

 NO OUTPUT CONTROL FOR STRESS PERIOD    1   TIME STEP 635
 
 SOLVING FOR HEAD 
 FLOW MODEL IS TRANSIENT
 FLOW MODEL CONTAINS CONSTANT-HEAD CELLS


 MAXIMUM STEPSIZE DURING WHICH ANY PARTICLE CANNOT MOVE MORE THAN ONE CELL
 =  5.085    (WHEN MIN. R.F.=1)  AT K=   4, I=   1, J=  74

 MAXIMUM STEPSIZE WHICH MEETS STABILITY CRITERION OF THE ADVECTION TERM
 (FOR PURE FINITE-DIFFERENCE OPTION, MIXELM=0) 
 =  3.811    (WHEN MIN. R.F.=1)  AT K=   2, I=   1, J=  80


 TOTAL NUMBER OF POINT SOURCES/SINKS PRESENT IN THE FLOW MODEL =    62

 MAXIMUM STEPSIZE WHICH MEETS STABILITY CRITERION OF THE SINK & SOURCE TERM
 =  582.8    (WHEN MIN. R.F.=1)  AT K=   2, I=   1, J=   1

 MAXIMUM STEPSIZE WHICH MEETS STABILITY CRITERION OF THE DISPERSION TERM
 =  20.29    (WHEN MIN. R.F.=1)  AT K=   1, I=   1, J=  31
     1 CALLS TO GCG PACKAGE FOR TRANSPORT TIME STEP   2 IN FLOW TIME STEP 635 STRESS PERIOD   1
     6 TOTAL ITERATIONS
 
 SOLVING FOR HEAD 
 FLOW MODEL IS TRANSIENT
 FLOW MODEL CONTAINS CONSTANT-HEAD CELLS


 MAXIMUM STEPSIZE DURING WHICH ANY PARTICLE CANNOT MOVE MORE THAN ONE CELL
 =  5.127    (WHEN MIN. R.F.=1)  AT K=   5, I=   1, J=  74

 MAXIMUM STEPSIZE WHICH MEETS STABILITY CRITERION OF THE ADVECTION TERM
 (FOR PURE FINITE-DIFFERENCE OPTION, MIXELM=0) 
 =  3.877    (WHEN MIN. R.F.=1)  AT K=   2, I=   1, J=  79


 TOTAL NUMBER OF POINT SOURCES/SINKS PRESENT IN THE FLOW MODEL =    62

 MAXIMUM STEPSIZE WHICH MEETS STABILITY CRITERION OF THE SINK & SOURCE TERM
 =  593.5    (WHEN MIN. R.F.=1)  AT K=   2, I=   1, J=   1

 MAXIMUM STEPSIZE WHICH MEETS STABILITY CRITERION OF THE DISPERSION TERM
 =  20.29    (WHEN MIN. R.F.=1)  AT K=   1, I=   1, J=  31
     1 CALLS TO GCG PACKAGE FOR TRANSPORT TIME STEP   3 IN FLOW TIME STEP 635 STRESS PERIOD   1
     6 TOTAL ITERATIONS
 
 SOLVING FOR HEAD 
 FLOW MODEL IS TRANSIENT
 FLOW MODEL CONTAINS CONSTANT-HEAD CELLS


 MAXIMUM STEPSIZE DURING WHICH ANY PARTICLE CANNOT MOVE MORE THAN ONE CELL
 =  5.199    (WHEN MIN. R.F.=1)  AT K=   5, I=   1, J=  74

 MAXIMUM STEPSIZE WHICH MEETS STABILITY CRITERION OF THE ADVECTION TERM
 (FOR PURE FINITE-DIFFERENCE OPTION, MIXELM=0) 
 =  3.647    (WHEN MIN. R.F.=1)  AT K=   2, I=   1, J=  79


 TOTAL NUMBER OF POINT SOURCES/SINKS PRESENT IN THE FLOW MODEL =    62

 MAXIMUM STEPSIZE WHICH MEETS STABILITY CRITERION OF THE SINK & SOURCE TERM
 =  604.5    (WHEN MIN. R.F.=1)  AT K=   2, I=   1, J=   1

 MAXIMUM STEPSIZE WHICH MEETS STABILITY CRITERION OF THE DISPERSION TERM
 =  20.29    (WHEN MIN. R.F.=1)  AT K=   1, I=   1, J=  31
     1 CALLS TO GCG PACKAGE FOR TRANSPORT TIME STEP   4 IN FLOW TIME STEP 635 STRESS PERIOD   1
     5 TOTAL ITERATIONS
  MAXIMUM CONCENTRATION CHANGES FOR EACH ITERATION:
  MAX. CHANGE LAYER,ROW,COL MAX. CHANGE LAYER,ROW,COL MAX. CHANGE LAYER,ROW,COL MAX. CHANGE LAYER,ROW,COL MAX. CHANGE LAYER,ROW,COL
 ------------------------------------------------------------------------------------------------------------------------------------
   0.1770E-01 (  2,  1, 31)  0.4956E-03 (  2,  1, 79)  0.1715E-04 (  2,  1, 76)  0.9769E-06 (  3,  1, 76)  0.2806E-07 (  4,  1, 76)


                                          ================================================
                                                         FROM TIME =   6350.0     TO    6360.0    

 
 SOLVING FOR HEAD 
 FLOW MODEL IS TRANSIENT
 FLOW MODEL CONTAINS CONSTANT-HEAD CELLS


 MAXIMUM STEPSIZE DURING WHICH ANY PARTICLE CANNOT MOVE MORE THAN ONE CELL
 =  5.260    (WHEN MIN. R.F.=1)  AT K=   5, I=   1, J=  74

 MAXIMUM STEPSIZE WHICH MEETS STABILITY CRITERION OF THE ADVECTION TERM
 (FOR PURE FINITE-DIFFERENCE OPTION, MIXELM=0) 
 =  3.598    (WHEN MIN. R.F.=1)  AT K=   2, I=   1, J=  79


 TOTAL NUMBER OF POINT SOURCES/SINKS PRESENT IN THE FLOW MODEL =    62

 MAXIMUM STEPSIZE WHICH MEETS STABILITY CRITERION OF THE SINK & SOURCE TERM
 =  687.0    (WHEN MIN. R.F.=1)  AT K=   2, I=   1, J=   1

 MAXIMUM STEPSIZE WHICH MEETS STABILITY CRITERION OF THE DISPERSION TERM
 =  20.29    (WHEN MIN. R.F.=1)  AT K=   1, I=   1, J=  31


     1 CALLS TO GCG PACKAGE FOR TRANSPORT TIME STEP   1 IN FLOW TIME STEP 636 STRESS PERIOD   1
     6 TOTAL ITERATIONS

 NO OUTPUT CONTROL FOR STRESS PERIOD    1   TIME STEP 636
 
 SOLVING FOR HEAD 
 FLOW MODEL IS TRANSIENT
 FLOW MODEL CONTAINS CONSTANT-HEAD CELLS


 MAXIMUM STEPSIZE DURING WHICH ANY PARTICLE CANNOT MOVE MORE THAN ONE CELL
 =  5.379    (WHEN MIN. R.F.=1)  AT K=   5, I=   1, J=  74

 MAXIMUM STEPSIZE WHICH MEETS STABILITY CRITERION OF THE ADVECTION TERM
 (FOR PURE FINITE-DIFFERENCE OPTION, MIXELM=0) 
 =  3.600    (WHEN MIN. R.F.=1)  AT K=   2, I=   1, J=  79


 TOTAL NUMBER OF POINT SOURCES/SINKS PRESENT IN THE FLOW MODEL =    62

 MAXIMUM STEPSIZE WHICH MEETS STABILITY CRITERION OF THE SINK & SOURCE TERM
 =  683.4    (WHEN MIN. R.F.=1)  AT K=   2, I=   1, J=   1

 MAXIMUM STEPSIZE WHICH MEETS STABILITY CRITERION OF THE DISPERSION TERM
 =  20.29    (WHEN MIN. R.F.=1)  AT K=   1, I=   1, J=  31
     1 CALLS TO GCG PACKAGE FOR TRANSPORT TIME STEP   2 IN FLOW TIME STEP 636 STRESS PERIOD   1
     6 TOTAL ITERATIONS
 
 SOLVING FOR HEAD 
 FLOW MODEL IS TRANSIENT
 FLOW MODEL CONTAINS CONSTANT-HEAD CELLS


 MAXIMUM STEPSIZE DURING WHICH ANY PARTICLE CANNOT MOVE MORE THAN ONE CELL
 =  5.475    (WHEN MIN. R.F.=1)  AT K=   6, I=   1, J=  74

 MAXIMUM STEPSIZE WHICH MEETS STABILITY CRITERION OF THE ADVECTION TERM
 (FOR PURE FINITE-DIFFERENCE OPTION, MIXELM=0) 
 =  3.732    (WHEN MIN. R.F.=1)  AT K=   2, I=   1, J=  79


 TOTAL NUMBER OF POINT SOURCES/SINKS PRESENT IN THE FLOW MODEL =    62

 MAXIMUM STEPSIZE WHICH MEETS STABILITY CRITERION OF THE SINK & SOURCE TERM
 =  732.0    (WHEN MIN. R.F.=1)  AT K=   2, I=   1, J=   1

 MAXIMUM STEPSIZE WHICH MEETS STABILITY CRITERION OF THE DISPERSION TERM
 =  20.29    (WHEN MIN. R.F.=1)  AT K=   1, I=   1, J=  31
     1 CALLS TO GCG PACKAGE FOR TRANSPORT TIME STEP   3 IN FLOW TIME STEP 636 STRESS PERIOD   1
     6 TOTAL ITERATIONS
 
 SOLVING FOR HEAD 
 FLOW MODEL IS TRANSIENT
 FLOW MODEL CONTAINS CONSTANT-HEAD CELLS


 MAXIMUM STEPSIZE DURING WHICH ANY PARTICLE CANNOT MOVE MORE THAN ONE CELL
 =  5.586    (WHEN MIN. R.F.=1)  AT K=   6, I=   1, J=  74

 MAXIMUM STEPSIZE WHICH MEETS STABILITY CRITERION OF THE ADVECTION TERM
 (FOR PURE FINITE-DIFFERENCE OPTION, MIXELM=0) 
 =  4.076    (WHEN MIN. R.F.=1)  AT K=   2, I=   1, J=  79


 TOTAL NUMBER OF POINT SOURCES/SINKS PRESENT IN THE FLOW MODEL =    62

 MAXIMUM STEPSIZE WHICH MEETS STABILITY CRITERION OF THE SINK & SOURCE TERM
 =  730.1    (WHEN MIN. R.F.=1)  AT K=   2, I=   1, J=   1

 MAXIMUM STEPSIZE WHICH MEETS STABILITY CRITERION OF THE DISPERSION TERM
 =  20.29    (WHEN MIN. R.F.=1)  AT K=   1, I=   1, J=  31
     1 CALLS TO GCG PACKAGE FOR TRANSPORT TIME STEP   4 IN FLOW TIME STEP 636 STRESS PERIOD   1
     5 TOTAL ITERATIONS
  MAXIMUM CONCENTRATION CHANGES FOR EACH ITERATION:
  MAX. CHANGE LAYER,ROW,COL MAX. CHANGE LAYER,ROW,COL MAX. CHANGE LAYER,ROW,COL MAX. CHANGE LAYER,ROW,COL MAX. CHANGE LAYER,ROW,COL
 ------------------------------------------------------------------------------------------------------------------------------------
   0.2226E-01 (  2,  1, 80)  0.6962E-03 (  2,  1, 78)  0.2606E-04 (  3,  1, 78)  0.1050E-05 (  3,  1, 76)  0.3500E-07 (  4,  1, 79)


                                          ================================================
                                                         FROM TIME =   6360.0     TO    6370.0    

 
 SOLVING FOR HEAD 
 FLOW MODEL IS TRANSIENT
 FLOW MODEL CONTAINS CONSTANT-HEAD CELLS


 MAXIMUM STEPSIZE DURING WHICH ANY PARTICLE CANNOT MOVE MORE THAN ONE CELL
 =  5.681    (WHEN MIN. R.F.=1)  AT K=   6, I=   1, J=  74

 MAXIMUM STEPSIZE WHICH MEETS STABILITY CRITERION OF THE ADVECTION TERM
 (FOR PURE FINITE-DIFFERENCE OPTION, MIXELM=0) 
 =  3.921    (WHEN MIN. R.F.=1)  AT K=   2, I=   1, J=  78


 TOTAL NUMBER OF POINT SOURCES/SINKS PRESENT IN THE FLOW MODEL =    62

 MAXIMUM STEPSIZE WHICH MEETS STABILITY CRITERION OF THE SINK & SOURCE TERM
 =  779.6    (WHEN MIN. R.F.=1)  AT K=   2, I=   1, J=   1

 MAXIMUM STEPSIZE WHICH MEETS STABILITY CRITERION OF THE DISPERSION TERM
 =  20.29    (WHEN MIN. R.F.=1)  AT K=   1, I=   1, J=  31


     1 CALLS TO GCG PACKAGE FOR TRANSPORT TIME STEP   1 IN FLOW TIME STEP 637 STRESS PERIOD   1
     6 TOTAL ITERATIONS

 NO OUTPUT CONTROL FOR STRESS PERIOD    1   TIME STEP 637
 
 SOLVING FOR HEAD 
 FLOW MODEL IS TRANSIENT
 FLOW MODEL CONTAINS CONSTANT-HEAD CELLS


 MAXIMUM STEPSIZE DURING WHICH ANY PARTICLE CANNOT MOVE MORE THAN ONE CELL
 =  5.817    (WHEN MIN. R.F.=1)  AT K=   7, I=   1, J=  74

 MAXIMUM STEPSIZE WHICH MEETS STABILITY CRITERION OF THE ADVECTION TERM
 (FOR PURE FINITE-DIFFERENCE OPTION, MIXELM=0) 
 =  3.712    (WHEN MIN. R.F.=1)  AT K=   2, I=   1, J=  78


 TOTAL NUMBER OF POINT SOURCES/SINKS PRESENT IN THE FLOW MODEL =    62

 MAXIMUM STEPSIZE WHICH MEETS STABILITY CRITERION OF THE SINK & SOURCE TERM
 =  744.2    (WHEN MIN. R.F.=1)  AT K=   2, I=   1, J=   1

 MAXIMUM STEPSIZE WHICH MEETS STABILITY CRITERION OF THE DISPERSION TERM
 =  20.29    (WHEN MIN. R.F.=1)  AT K=   1, I=   1, J=  31
     1 CALLS TO GCG PACKAGE FOR TRANSPORT TIME STEP   2 IN FLOW TIME STEP 637 STRESS PERIOD   1
     6 TOTAL ITERATIONS
 
 SOLVING FOR HEAD 
 FLOW MODEL IS TRANSIENT
 FLOW MODEL CONTAINS CONSTANT-HEAD CELLS


 MAXIMUM STEPSIZE DURING WHICH ANY PARTICLE CANNOT MOVE MORE THAN ONE CELL
 =  5.893    (WHEN MIN. R.F.=1)  AT K=  28, I=   1, J=  52

 MAXIMUM STEPSIZE WHICH MEETS STABILITY CRITERION OF THE ADVECTION TERM
 (FOR PURE FINITE-DIFFERENCE OPTION, MIXELM=0) 
 =  3.675    (WHEN MIN. R.F.=1)  AT K=   2, I=   1, J=  78


 TOTAL NUMBER OF POINT SOURCES/SINKS PRESENT IN THE FLOW MODEL =    62

 MAXIMUM STEPSIZE WHICH MEETS STABILITY CRITERION OF THE SINK & SOURCE TERM
 =  831.0    (WHEN MIN. R.F.=1)  AT K=   2, I=   1, J=   1

 MAXIMUM STEPSIZE WHICH MEETS STABILITY CRITERION OF THE DISPERSION TERM
 =  20.29    (WHEN MIN. R.F.=1)  AT K=   1, I=   1, J=  31
     1 CALLS TO GCG PACKAGE FOR TRANSPORT TIME STEP   3 IN FLOW TIME STEP 637 STRESS PERIOD   1
     6 TOTAL ITERATIONS
 
 SOLVING FOR HEAD 
 FLOW MODEL IS TRANSIENT
 FLOW MODEL CONTAINS CONSTANT-HEAD CELLS


 MAXIMUM STEPSIZE DURING WHICH ANY PARTICLE CANNOT MOVE MORE THAN ONE CELL
 =  5.891    (WHEN MIN. R.F.=1)  AT K=  28, I=   1, J=  52

 MAXIMUM STEPSIZE WHICH MEETS STABILITY CRITERION OF THE ADVECTION TERM
 (FOR PURE FINITE-DIFFERENCE OPTION, MIXELM=0) 
 =  3.757    (WHEN MIN. R.F.=1)  AT K=   2, I=   1, J=  78


 TOTAL NUMBER OF POINT SOURCES/SINKS PRESENT IN THE FLOW MODEL =    62

 MAXIMUM STEPSIZE WHICH MEETS STABILITY CRITERION OF THE SINK & SOURCE TERM
 =  924.5    (WHEN MIN. R.F.=1)  AT K=   2, I=   1, J=   1

 MAXIMUM STEPSIZE WHICH MEETS STABILITY CRITERION OF THE DISPERSION TERM
 =  20.29    (WHEN MIN. R.F.=1)  AT K=   1, I=   1, J=  31
     1 CALLS TO GCG PACKAGE FOR TRANSPORT TIME STEP   4 IN FLOW TIME STEP 637 STRESS PERIOD   1
     5 TOTAL ITERATIONS
  MAXIMUM CONCENTRATION CHANGES FOR EACH ITERATION:
  MAX. CHANGE LAYER,ROW,COL MAX. CHANGE LAYER,ROW,COL MAX. CHANGE LAYER,ROW,COL MAX. CHANGE LAYER,ROW,COL MAX. CHANGE LAYER,ROW,COL
 ------------------------------------------------------------------------------------------------------------------------------------
   0.1515E-01 (  2,  1, 79)  0.2763E-03 (  2,  1, 79)  0.7133E-05 (  2,  1, 80)  0.2121E-06 (  3,  1, 80)  0.5116E-08 (  3,  1, 77)


                                          ================================================
                                                         FROM TIME =   6370.0     TO    6380.0    

 
 SOLVING FOR HEAD 
 FLOW MODEL IS TRANSIENT
 FLOW MODEL CONTAINS CONSTANT-HEAD CELLS


 MAXIMUM STEPSIZE DURING WHICH ANY PARTICLE CANNOT MOVE MORE THAN ONE CELL
 =  5.895    (WHEN MIN. R.F.=1)  AT K=  28, I=   1, J=  52

 MAXIMUM STEPSIZE WHICH MEETS STABILITY CRITERION OF THE ADVECTION TERM
 (FOR PURE FINITE-DIFFERENCE OPTION, MIXELM=0) 
 =  3.847    (WHEN MIN. R.F.=1)  AT K=   2, I=   1, J=  78


 TOTAL NUMBER OF POINT SOURCES/SINKS PRESENT IN THE FLOW MODEL =    62

 MAXIMUM STEPSIZE WHICH MEETS STABILITY CRITERION OF THE SINK & SOURCE TERM
 =  1185.    (WHEN MIN. R.F.=1)  AT K=   2, I=   1, J=   1

 MAXIMUM STEPSIZE WHICH MEETS STABILITY CRITERION OF THE DISPERSION TERM
 =  20.29    (WHEN MIN. R.F.=1)  AT K=   1, I=   1, J=  31


     1 CALLS TO GCG PACKAGE FOR TRANSPORT TIME STEP   1 IN FLOW TIME STEP 638 STRESS PERIOD   1
     6 TOTAL ITERATIONS

 NO OUTPUT CONTROL FOR STRESS PERIOD    1   TIME STEP 638
 
 SOLVING FOR HEAD 
 FLOW MODEL IS TRANSIENT
 FLOW MODEL CONTAINS CONSTANT-HEAD CELLS


 MAXIMUM STEPSIZE DURING WHICH ANY PARTICLE CANNOT MOVE MORE THAN ONE CELL
 =  5.806    (WHEN MIN. R.F.=1)  AT K=   4, I=   1, J=  47

 MAXIMUM STEPSIZE WHICH MEETS STABILITY CRITERION OF THE ADVECTION TERM
 (FOR PURE FINITE-DIFFERENCE OPTION, MIXELM=0) 
 =  4.171    (WHEN MIN. R.F.=1)  AT K=   2, I=   1, J=  78


 TOTAL NUMBER OF POINT SOURCES/SINKS PRESENT IN THE FLOW MODEL =    62

 MAXIMUM STEPSIZE WHICH MEETS STABILITY CRITERION OF THE SINK & SOURCE TERM
 =  1005.    (WHEN MIN. R.F.=1)  AT K=   2, I=   1, J=   1

 MAXIMUM STEPSIZE WHICH MEETS STABILITY CRITERION OF THE DISPERSION TERM
 =  20.29    (WHEN MIN. R.F.=1)  AT K=   1, I=   1, J=  31
     1 CALLS TO GCG PACKAGE FOR TRANSPORT TIME STEP   2 IN FLOW TIME STEP 638 STRESS PERIOD   1
     6 TOTAL ITERATIONS
 
 SOLVING FOR HEAD 
 FLOW MODEL IS TRANSIENT
 FLOW MODEL CONTAINS CONSTANT-HEAD CELLS


 MAXIMUM STEPSIZE DURING WHICH ANY PARTICLE CANNOT MOVE MORE THAN ONE CELL
 =  5.498    (WHEN MIN. R.F.=1)  AT K=   4, I=   1, J=  47

 MAXIMUM STEPSIZE WHICH MEETS STABILITY CRITERION OF THE ADVECTION TERM
 (FOR PURE FINITE-DIFFERENCE OPTION, MIXELM=0) 
 =  4.095    (WHEN MIN. R.F.=1)  AT K=   2, I=   1, J=  77


 TOTAL NUMBER OF POINT SOURCES/SINKS PRESENT IN THE FLOW MODEL =    62

 MAXIMUM STEPSIZE WHICH MEETS STABILITY CRITERION OF THE SINK & SOURCE TERM
 =  1088.    (WHEN MIN. R.F.=1)  AT K=   2, I=   1, J=   1

 MAXIMUM STEPSIZE WHICH MEETS STABILITY CRITERION OF THE DISPERSION TERM
 =  20.29    (WHEN MIN. R.F.=1)  AT K=   1, I=   1, J=  31
     1 CALLS TO GCG PACKAGE FOR TRANSPORT TIME STEP   3 IN FLOW TIME STEP 638 STRESS PERIOD   1
     6 TOTAL ITERATIONS
 
 SOLVING FOR HEAD 
 FLOW MODEL IS TRANSIENT
 FLOW MODEL CONTAINS CONSTANT-HEAD CELLS


 MAXIMUM STEPSIZE DURING WHICH ANY PARTICLE CANNOT MOVE MORE THAN ONE CELL
 =  5.262    (WHEN MIN. R.F.=1)  AT K=   4, I=   1, J=  47

 MAXIMUM STEPSIZE WHICH MEETS STABILITY CRITERION OF THE ADVECTION TERM
 (FOR PURE FINITE-DIFFERENCE OPTION, MIXELM=0) 
 =  3.893    (WHEN MIN. R.F.=1)  AT K=   2, I=   1, J=  77


 TOTAL NUMBER OF POINT SOURCES/SINKS PRESENT IN THE FLOW MODEL =    62

 MAXIMUM STEPSIZE WHICH MEETS STABILITY CRITERION OF THE SINK & SOURCE TERM
 =  1218.    (WHEN MIN. R.F.=1)  AT K=   2, I=   1, J=   1

 MAXIMUM STEPSIZE WHICH MEETS STABILITY CRITERION OF THE DISPERSION TERM
 =  20.29    (WHEN MIN. R.F.=1)  AT K=   1, I=   1, J=  31
     1 CALLS TO GCG PACKAGE FOR TRANSPORT TIME STEP   4 IN FLOW TIME STEP 638 STRESS PERIOD   1
     5 TOTAL ITERATIONS
  MAXIMUM CONCENTRATION CHANGES FOR EACH ITERATION:
  MAX. CHANGE LAYER,ROW,COL MAX. CHANGE LAYER,ROW,COL MAX. CHANGE LAYER,ROW,COL MAX. CHANGE LAYER,ROW,COL MAX. CHANGE LAYER,ROW,COL
 ------------------------------------------------------------------------------------------------------------------------------------
   0.1238E-01 (  2,  1, 31)  0.2842E-03 (  2,  1, 77)  0.5728E-05 (  3,  1, 77)  0.1348E-06 (  3,  1, 32)  0.3760E-08 (  4,  1, 78)


                                          ================================================
                                                         FROM TIME =   6380.0     TO    6390.0    

 
 SOLVING FOR HEAD 
 FLOW MODEL IS TRANSIENT
 FLOW MODEL CONTAINS CONSTANT-HEAD CELLS


 MAXIMUM STEPSIZE DURING WHICH ANY PARTICLE CANNOT MOVE MORE THAN ONE CELL
 =  5.198    (WHEN MIN. R.F.=1)  AT K=   4, I=   1, J=  47

 MAXIMUM STEPSIZE WHICH MEETS STABILITY CRITERION OF THE ADVECTION TERM
 (FOR PURE FINITE-DIFFERENCE OPTION, MIXELM=0) 
 =  3.870    (WHEN MIN. R.F.=1)  AT K=   2, I=   1, J=  77


 TOTAL NUMBER OF POINT SOURCES/SINKS PRESENT IN THE FLOW MODEL =    62

 MAXIMUM STEPSIZE WHICH MEETS STABILITY CRITERION OF THE SINK & SOURCE TERM
 =  2566.    (WHEN MIN. R.F.=1)  AT K=   2, I=   1, J=   1

 MAXIMUM STEPSIZE WHICH MEETS STABILITY CRITERION OF THE DISPERSION TERM
 =  20.29    (WHEN MIN. R.F.=1)  AT K=   1, I=   1, J=  31


     1 CALLS TO GCG PACKAGE FOR TRANSPORT TIME STEP   1 IN FLOW TIME STEP 639 STRESS PERIOD   1
     6 TOTAL ITERATIONS

 NO OUTPUT CONTROL FOR STRESS PERIOD    1   TIME STEP 639
 
 SOLVING FOR HEAD 
 FLOW MODEL IS TRANSIENT
 FLOW MODEL CONTAINS CONSTANT-HEAD CELLS


 MAXIMUM STEPSIZE DURING WHICH ANY PARTICLE CANNOT MOVE MORE THAN ONE CELL
 =  5.089    (WHEN MIN. R.F.=1)  AT K=   4, I=   1, J=  47

 MAXIMUM STEPSIZE WHICH MEETS STABILITY CRITERION OF THE ADVECTION TERM
 (FOR PURE FINITE-DIFFERENCE OPTION, MIXELM=0) 
 =  3.878    (WHEN MIN. R.F.=1)  AT K=   2, I=   1, J=  77


 TOTAL NUMBER OF POINT SOURCES/SINKS PRESENT IN THE FLOW MODEL =    62

 MAXIMUM STEPSIZE WHICH MEETS STABILITY CRITERION OF THE SINK & SOURCE TERM
 =  2103.    (WHEN MIN. R.F.=1)  AT K=   2, I=   1, J=   1

 MAXIMUM STEPSIZE WHICH MEETS STABILITY CRITERION OF THE DISPERSION TERM
 =  20.29    (WHEN MIN. R.F.=1)  AT K=   1, I=   1, J=  31
     1 CALLS TO GCG PACKAGE FOR TRANSPORT TIME STEP   2 IN FLOW TIME STEP 639 STRESS PERIOD   1
     6 TOTAL ITERATIONS
 
 SOLVING FOR HEAD 
 FLOW MODEL IS TRANSIENT
 FLOW MODEL CONTAINS CONSTANT-HEAD CELLS


 MAXIMUM STEPSIZE DURING WHICH ANY PARTICLE CANNOT MOVE MORE THAN ONE CELL
 =  5.052    (WHEN MIN. R.F.=1)  AT K=   4, I=   1, J=  47

 MAXIMUM STEPSIZE WHICH MEETS STABILITY CRITERION OF THE ADVECTION TERM
 (FOR PURE FINITE-DIFFERENCE OPTION, MIXELM=0) 
 =  3.992    (WHEN MIN. R.F.=1)  AT K=   2, I=   1, J=  77


 TOTAL NUMBER OF POINT SOURCES/SINKS PRESENT IN THE FLOW MODEL =    62

 MAXIMUM STEPSIZE WHICH MEETS STABILITY CRITERION OF THE SINK & SOURCE TERM
 =  2102.    (WHEN MIN. R.F.=1)  AT K=   2, I=   1, J= 120

 MAXIMUM STEPSIZE WHICH MEETS STABILITY CRITERION OF THE DISPERSION TERM
 =  20.29    (WHEN MIN. R.F.=1)  AT K=   1, I=   1, J=  31
     1 CALLS TO GCG PACKAGE FOR TRANSPORT TIME STEP   3 IN FLOW TIME STEP 639 STRESS PERIOD   1
     6 TOTAL ITERATIONS
 
 SOLVING FOR HEAD 
 FLOW MODEL IS TRANSIENT
 FLOW MODEL CONTAINS CONSTANT-HEAD CELLS


 MAXIMUM STEPSIZE DURING WHICH ANY PARTICLE CANNOT MOVE MORE THAN ONE CELL
 =  5.077    (WHEN MIN. R.F.=1)  AT K=   4, I=   1, J=  47

 MAXIMUM STEPSIZE WHICH MEETS STABILITY CRITERION OF THE ADVECTION TERM
 (FOR PURE FINITE-DIFFERENCE OPTION, MIXELM=0) 
 =  3.853    (WHEN MIN. R.F.=1)  AT K=   2, I=   1, J=  41


 TOTAL NUMBER OF POINT SOURCES/SINKS PRESENT IN THE FLOW MODEL =    62

 MAXIMUM STEPSIZE WHICH MEETS STABILITY CRITERION OF THE SINK & SOURCE TERM
 =  1403.    (WHEN MIN. R.F.=1)  AT K=   2, I=   1, J= 120

 MAXIMUM STEPSIZE WHICH MEETS STABILITY CRITERION OF THE DISPERSION TERM
 =  20.29    (WHEN MIN. R.F.=1)  AT K=   1, I=   1, J=  31
     1 CALLS TO GCG PACKAGE FOR TRANSPORT TIME STEP   4 IN FLOW TIME STEP 639 STRESS PERIOD   1
     5 TOTAL ITERATIONS
  MAXIMUM CONCENTRATION CHANGES FOR EACH ITERATION:
  MAX. CHANGE LAYER,ROW,COL MAX. CHANGE LAYER,ROW,COL MAX. CHANGE LAYER,ROW,COL MAX. CHANGE LAYER,ROW,COL MAX. CHANGE LAYER,ROW,COL
 ------------------------------------------------------------------------------------------------------------------------------------
   0.1552E-01 (  2,  1, 78)  0.2680E-03 (  2,  1, 76)  0.7354E-05 (  2,  1, 79)  0.2431E-06 (  3,  1, 79)  0.5547E-08 (  4,  1, 75)


                                          ================================================
                                                         FROM TIME =   6390.0     TO    6400.0    

 
 SOLVING FOR HEAD 
 FLOW MODEL IS TRANSIENT
 FLOW MODEL CONTAINS CONSTANT-HEAD CELLS


 MAXIMUM STEPSIZE DURING WHICH ANY PARTICLE CANNOT MOVE MORE THAN ONE CELL
 =  5.106    (WHEN MIN. R.F.=1)  AT K=   4, I=   1, J=  47

 MAXIMUM STEPSIZE WHICH MEETS STABILITY CRITERION OF THE ADVECTION TERM
 (FOR PURE FINITE-DIFFERENCE OPTION, MIXELM=0) 
 =  3.810    (WHEN MIN. R.F.=1)  AT K=   2, I=   1, J=  41


 TOTAL NUMBER OF POINT SOURCES/SINKS PRESENT IN THE FLOW MODEL =    62

 MAXIMUM STEPSIZE WHICH MEETS STABILITY CRITERION OF THE SINK & SOURCE TERM
 =  1721.    (WHEN MIN. R.F.=1)  AT K=   2, I=   1, J= 120

 MAXIMUM STEPSIZE WHICH MEETS STABILITY CRITERION OF THE DISPERSION TERM
 =  20.29    (WHEN MIN. R.F.=1)  AT K=   1, I=   1, J=  31


     1 CALLS TO GCG PACKAGE FOR TRANSPORT TIME STEP   1 IN FLOW TIME STEP 640 STRESS PERIOD   1
     6 TOTAL ITERATIONS

 NO OUTPUT CONTROL FOR STRESS PERIOD    1   TIME STEP 640
 
 SOLVING FOR HEAD 
 FLOW MODEL IS TRANSIENT
 FLOW MODEL CONTAINS CONSTANT-HEAD CELLS


 MAXIMUM STEPSIZE DURING WHICH ANY PARTICLE CANNOT MOVE MORE THAN ONE CELL
 =  5.172    (WHEN MIN. R.F.=1)  AT K=   5, I=   1, J=  47

 MAXIMUM STEPSIZE WHICH MEETS STABILITY CRITERION OF THE ADVECTION TERM
 (FOR PURE FINITE-DIFFERENCE OPTION, MIXELM=0) 
 =  3.810    (WHEN MIN. R.F.=1)  AT K=   2, I=   1, J=  41


 TOTAL NUMBER OF POINT SOURCES/SINKS PRESENT IN THE FLOW MODEL =    62

 MAXIMUM STEPSIZE WHICH MEETS STABILITY CRITERION OF THE SINK & SOURCE TERM
 =  1113.    (WHEN MIN. R.F.=1)  AT K=   2, I=   1, J= 120

 MAXIMUM STEPSIZE WHICH MEETS STABILITY CRITERION OF THE DISPERSION TERM
 =  20.29    (WHEN MIN. R.F.=1)  AT K=   1, I=   1, J=  31
     1 CALLS TO GCG PACKAGE FOR TRANSPORT TIME STEP   2 IN FLOW TIME STEP 640 STRESS PERIOD   1
     6 TOTAL ITERATIONS
 
 SOLVING FOR HEAD 
 FLOW MODEL IS TRANSIENT
 FLOW MODEL CONTAINS CONSTANT-HEAD CELLS


 MAXIMUM STEPSIZE DURING WHICH ANY PARTICLE CANNOT MOVE MORE THAN ONE CELL
 =  5.242    (WHEN MIN. R.F.=1)  AT K=   5, I=   1, J=  47

 MAXIMUM STEPSIZE WHICH MEETS STABILITY CRITERION OF THE ADVECTION TERM
 (FOR PURE FINITE-DIFFERENCE OPTION, MIXELM=0) 
 =  3.970    (WHEN MIN. R.F.=1)  AT K=   2, I=   1, J=  41


 TOTAL NUMBER OF POINT SOURCES/SINKS PRESENT IN THE FLOW MODEL =    62

 MAXIMUM STEPSIZE WHICH MEETS STABILITY CRITERION OF THE SINK & SOURCE TERM
 =  1106.    (WHEN MIN. R.F.=1)  AT K=   2, I=   1, J= 120

 MAXIMUM STEPSIZE WHICH MEETS STABILITY CRITERION OF THE DISPERSION TERM
 =  20.29    (WHEN MIN. R.F.=1)  AT K=   1, I=   1, J=  31
     1 CALLS TO GCG PACKAGE FOR TRANSPORT TIME STEP   3 IN FLOW TIME STEP 640 STRESS PERIOD   1
     6 TOTAL ITERATIONS
 
 SOLVING FOR HEAD 
 FLOW MODEL IS TRANSIENT
 FLOW MODEL CONTAINS CONSTANT-HEAD CELLS


 MAXIMUM STEPSIZE DURING WHICH ANY PARTICLE CANNOT MOVE MORE THAN ONE CELL
 =  5.348    (WHEN MIN. R.F.=1)  AT K=   5, I=   1, J=  47

 MAXIMUM STEPSIZE WHICH MEETS STABILITY CRITERION OF THE ADVECTION TERM
 (FOR PURE FINITE-DIFFERENCE OPTION, MIXELM=0) 
 =  3.974    (WHEN MIN. R.F.=1)  AT K=   2, I=   1, J=  42


 TOTAL NUMBER OF POINT SOURCES/SINKS PRESENT IN THE FLOW MODEL =    62

 MAXIMUM STEPSIZE WHICH MEETS STABILITY CRITERION OF THE SINK & SOURCE TERM
 =  1004.    (WHEN MIN. R.F.=1)  AT K=   2, I=   1, J= 120

 MAXIMUM STEPSIZE WHICH MEETS STABILITY CRITERION OF THE DISPERSION TERM
 =  20.29    (WHEN MIN. R.F.=1)  AT K=   1, I=   1, J=  31
     1 CALLS TO GCG PACKAGE FOR TRANSPORT TIME STEP   4 IN FLOW TIME STEP 640 STRESS PERIOD   1
     5 TOTAL ITERATIONS
  MAXIMUM CONCENTRATION CHANGES FOR EACH ITERATION:
  MAX. CHANGE LAYER,ROW,COL MAX. CHANGE LAYER,ROW,COL MAX. CHANGE LAYER,ROW,COL MAX. CHANGE LAYER,ROW,COL MAX. CHANGE LAYER,ROW,COL
 ------------------------------------------------------------------------------------------------------------------------------------
   0.1542E-01 (  2,  1, 40)  0.3140E-03 (  3,  1, 79)  0.9834E-05 (  2,  1, 78)  0.4039E-06 (  3,  1, 45)  0.9846E-08 (  4,  1, 45)


                                          ================================================
                                                         FROM TIME =   6400.0     TO    6410.0    

 
 SOLVING FOR HEAD 
 FLOW MODEL IS TRANSIENT
 FLOW MODEL CONTAINS CONSTANT-HEAD CELLS


 MAXIMUM STEPSIZE DURING WHICH ANY PARTICLE CANNOT MOVE MORE THAN ONE CELL
 =  5.415    (WHEN MIN. R.F.=1)  AT K=   5, I=   1, J=  47

 MAXIMUM STEPSIZE WHICH MEETS STABILITY CRITERION OF THE ADVECTION TERM
 (FOR PURE FINITE-DIFFERENCE OPTION, MIXELM=0) 
 =  3.862    (WHEN MIN. R.F.=1)  AT K=   2, I=   1, J=  42


 TOTAL NUMBER OF POINT SOURCES/SINKS PRESENT IN THE FLOW MODEL =    62

 MAXIMUM STEPSIZE WHICH MEETS STABILITY CRITERION OF THE SINK & SOURCE TERM
 =  1144.    (WHEN MIN. R.F.=1)  AT K=   2, I=   1, J= 120

 MAXIMUM STEPSIZE WHICH MEETS STABILITY CRITERION OF THE DISPERSION TERM
 =  20.29    (WHEN MIN. R.F.=1)  AT K=   1, I=   1, J=  31


     1 CALLS TO GCG PACKAGE FOR TRANSPORT TIME STEP   1 IN FLOW TIME STEP 641 STRESS PERIOD   1
     6 TOTAL ITERATIONS

 NO OUTPUT CONTROL FOR STRESS PERIOD    1   TIME STEP 641
 
 SOLVING FOR HEAD 
 FLOW MODEL IS TRANSIENT
 FLOW MODEL CONTAINS CONSTANT-HEAD CELLS


 MAXIMUM STEPSIZE DURING WHICH ANY PARTICLE CANNOT MOVE MORE THAN ONE CELL
 =  5.558    (WHEN MIN. R.F.=1)  AT K=   6, I=   1, J=  47

 MAXIMUM STEPSIZE WHICH MEETS STABILITY CRITERION OF THE ADVECTION TERM
 (FOR PURE FINITE-DIFFERENCE OPTION, MIXELM=0) 
 =  3.739    (WHEN MIN. R.F.=1)  AT K=   2, I=   1, J=  42


 TOTAL NUMBER OF POINT SOURCES/SINKS PRESENT IN THE FLOW MODEL =    62

 MAXIMUM STEPSIZE WHICH MEETS STABILITY CRITERION OF THE SINK & SOURCE TERM
 =  807.1    (WHEN MIN. R.F.=1)  AT K=   2, I=   1, J= 120

 MAXIMUM STEPSIZE WHICH MEETS STABILITY CRITERION OF THE DISPERSION TERM
 =  20.29    (WHEN MIN. R.F.=1)  AT K=   1, I=   1, J=  31
     1 CALLS TO GCG PACKAGE FOR TRANSPORT TIME STEP   2 IN FLOW TIME STEP 641 STRESS PERIOD   1
     6 TOTAL ITERATIONS
 
 SOLVING FOR HEAD 
 FLOW MODEL IS TRANSIENT
 FLOW MODEL CONTAINS CONSTANT-HEAD CELLS


 MAXIMUM STEPSIZE DURING WHICH ANY PARTICLE CANNOT MOVE MORE THAN ONE CELL
 =  5.676    (WHEN MIN. R.F.=1)  AT K=   6, I=   1, J=  47

 MAXIMUM STEPSIZE WHICH MEETS STABILITY CRITERION OF THE ADVECTION TERM
 (FOR PURE FINITE-DIFFERENCE OPTION, MIXELM=0) 
 =  3.764    (WHEN MIN. R.F.=1)  AT K=   2, I=   1, J=  42


 TOTAL NUMBER OF POINT SOURCES/SINKS PRESENT IN THE FLOW MODEL =    62

 MAXIMUM STEPSIZE WHICH MEETS STABILITY CRITERION OF THE SINK & SOURCE TERM
 =  700.0    (WHEN MIN. R.F.=1)  AT K=   2, I=   1, J= 120

 MAXIMUM STEPSIZE WHICH MEETS STABILITY CRITERION OF THE DISPERSION TERM
 =  20.29    (WHEN MIN. R.F.=1)  AT K=   1, I=   1, J=  31
     1 CALLS TO GCG PACKAGE FOR TRANSPORT TIME STEP   3 IN FLOW TIME STEP 641 STRESS PERIOD   1
     6 TOTAL ITERATIONS
 
 SOLVING FOR HEAD 
 FLOW MODEL IS TRANSIENT
 FLOW MODEL CONTAINS CONSTANT-HEAD CELLS


 MAXIMUM STEPSIZE DURING WHICH ANY PARTICLE CANNOT MOVE MORE THAN ONE CELL
 =  5.822    (WHEN MIN. R.F.=1)  AT K=   6, I=   1, J=  47

 MAXIMUM STEPSIZE WHICH MEETS STABILITY CRITERION OF THE ADVECTION TERM
 (FOR PURE FINITE-DIFFERENCE OPTION, MIXELM=0) 
 =  3.916    (WHEN MIN. R.F.=1)  AT K=   2, I=   1, J=  42


 TOTAL NUMBER OF POINT SOURCES/SINKS PRESENT IN THE FLOW MODEL =    62

 MAXIMUM STEPSIZE WHICH MEETS STABILITY CRITERION OF THE SINK & SOURCE TERM
 =  649.2    (WHEN MIN. R.F.=1)  AT K=   2, I=   1, J= 120

 MAXIMUM STEPSIZE WHICH MEETS STABILITY CRITERION OF THE DISPERSION TERM
 =  20.29    (WHEN MIN. R.F.=1)  AT K=   1, I=   1, J=  31
     1 CALLS TO GCG PACKAGE FOR TRANSPORT TIME STEP   4 IN FLOW TIME STEP 641 STRESS PERIOD   1
     5 TOTAL ITERATIONS
  MAXIMUM CONCENTRATION CHANGES FOR EACH ITERATION:
  MAX. CHANGE LAYER,ROW,COL MAX. CHANGE LAYER,ROW,COL MAX. CHANGE LAYER,ROW,COL MAX. CHANGE LAYER,ROW,COL MAX. CHANGE LAYER,ROW,COL
 ------------------------------------------------------------------------------------------------------------------------------------
   0.1439E-01 (  2,  1, 77)  0.3082E-03 (  2,  1, 83)  0.8230E-05 (  3,  1, 43)  0.3364E-06 (  3,  1, 45)  0.6950E-08 (  4,  1, 81)


                                          ================================================
                                                         FROM TIME =   6410.0     TO    6420.0    

 
 SOLVING FOR HEAD 
 FLOW MODEL IS TRANSIENT
 FLOW MODEL CONTAINS CONSTANT-HEAD CELLS


 MAXIMUM STEPSIZE DURING WHICH ANY PARTICLE CANNOT MOVE MORE THAN ONE CELL
 =  5.895    (WHEN MIN. R.F.=1)  AT K=   7, I=   1, J=  47

 MAXIMUM STEPSIZE WHICH MEETS STABILITY CRITERION OF THE ADVECTION TERM
 (FOR PURE FINITE-DIFFERENCE OPTION, MIXELM=0) 
 =  4.051    (WHEN MIN. R.F.=1)  AT K=   2, I=   1, J=  42


 TOTAL NUMBER OF POINT SOURCES/SINKS PRESENT IN THE FLOW MODEL =    62

 MAXIMUM STEPSIZE WHICH MEETS STABILITY CRITERION OF THE SINK & SOURCE TERM
 =  738.4    (WHEN MIN. R.F.=1)  AT K=   2, I=   1, J= 120

 MAXIMUM STEPSIZE WHICH MEETS STABILITY CRITERION OF THE DISPERSION TERM
 =  20.29    (WHEN MIN. R.F.=1)  AT K=   1, I=   1, J=  31


     1 CALLS TO GCG PACKAGE FOR TRANSPORT TIME STEP   1 IN FLOW TIME STEP 642 STRESS PERIOD   1
     6 TOTAL ITERATIONS

 NO OUTPUT CONTROL FOR STRESS PERIOD    1   TIME STEP 642
 
 SOLVING FOR HEAD 
 FLOW MODEL IS TRANSIENT
 FLOW MODEL CONTAINS CONSTANT-HEAD CELLS


 MAXIMUM STEPSIZE DURING WHICH ANY PARTICLE CANNOT MOVE MORE THAN ONE CELL
 =  5.895    (WHEN MIN. R.F.=1)  AT K=  28, I=   1, J=  52

 MAXIMUM STEPSIZE WHICH MEETS STABILITY CRITERION OF THE ADVECTION TERM
 (FOR PURE FINITE-DIFFERENCE OPTION, MIXELM=0) 
 =  3.997    (WHEN MIN. R.F.=1)  AT K=   2, I=   1, J=  43


 TOTAL NUMBER OF POINT SOURCES/SINKS PRESENT IN THE FLOW MODEL =    62

 MAXIMUM STEPSIZE WHICH MEETS STABILITY CRITERION OF THE SINK & SOURCE TERM
 =  586.1    (WHEN MIN. R.F.=1)  AT K=   2, I=   1, J= 120

 MAXIMUM STEPSIZE WHICH MEETS STABILITY CRITERION OF THE DISPERSION TERM
 =  20.29    (WHEN MIN. R.F.=1)  AT K=   1, I=   1, J=  31
     1 CALLS TO GCG PACKAGE FOR TRANSPORT TIME STEP   2 IN FLOW TIME STEP 642 STRESS PERIOD   1
     6 TOTAL ITERATIONS
 
 SOLVING FOR HEAD 
 FLOW MODEL IS TRANSIENT
 FLOW MODEL CONTAINS CONSTANT-HEAD CELLS


 MAXIMUM STEPSIZE DURING WHICH ANY PARTICLE CANNOT MOVE MORE THAN ONE CELL
 =  5.737    (WHEN MIN. R.F.=1)  AT K=   4, I=   1, J=  74

 MAXIMUM STEPSIZE WHICH MEETS STABILITY CRITERION OF THE ADVECTION TERM
 (FOR PURE FINITE-DIFFERENCE OPTION, MIXELM=0) 
 =  3.818    (WHEN MIN. R.F.=1)  AT K=   2, I=   1, J=  43


 TOTAL NUMBER OF POINT SOURCES/SINKS PRESENT IN THE FLOW MODEL =    62

 MAXIMUM STEPSIZE WHICH MEETS STABILITY CRITERION OF THE SINK & SOURCE TERM
 =  518.5    (WHEN MIN. R.F.=1)  AT K=   2, I=   1, J= 120

 MAXIMUM STEPSIZE WHICH MEETS STABILITY CRITERION OF THE DISPERSION TERM
 =  20.29    (WHEN MIN. R.F.=1)  AT K=   1, I=   1, J=  31
     1 CALLS TO GCG PACKAGE FOR TRANSPORT TIME STEP   3 IN FLOW TIME STEP 642 STRESS PERIOD   1
     6 TOTAL ITERATIONS
 
 SOLVING FOR HEAD 
 FLOW MODEL IS TRANSIENT
 FLOW MODEL CONTAINS CONSTANT-HEAD CELLS


 MAXIMUM STEPSIZE DURING WHICH ANY PARTICLE CANNOT MOVE MORE THAN ONE CELL
 =  5.483    (WHEN MIN. R.F.=1)  AT K=   4, I=   1, J=  74

 MAXIMUM STEPSIZE WHICH MEETS STABILITY CRITERION OF THE ADVECTION TERM
 (FOR PURE FINITE-DIFFERENCE OPTION, MIXELM=0) 
 =  3.796    (WHEN MIN. R.F.=1)  AT K=   2, I=   1, J=  43


 TOTAL NUMBER OF POINT SOURCES/SINKS PRESENT IN THE FLOW MODEL =    62

 MAXIMUM STEPSIZE WHICH MEETS STABILITY CRITERION OF THE SINK & SOURCE TERM
 =  490.2    (WHEN MIN. R.F.=1)  AT K=   2, I=   1, J= 120

 MAXIMUM STEPSIZE WHICH MEETS STABILITY CRITERION OF THE DISPERSION TERM
 =  20.29    (WHEN MIN. R.F.=1)  AT K=   1, I=   1, J=  31
     1 CALLS TO GCG PACKAGE FOR TRANSPORT TIME STEP   4 IN FLOW TIME STEP 642 STRESS PERIOD   1
     5 TOTAL ITERATIONS
  MAXIMUM CONCENTRATION CHANGES FOR EACH ITERATION:
  MAX. CHANGE LAYER,ROW,COL MAX. CHANGE LAYER,ROW,COL MAX. CHANGE LAYER,ROW,COL MAX. CHANGE LAYER,ROW,COL MAX. CHANGE LAYER,ROW,COL
 ------------------------------------------------------------------------------------------------------------------------------------
   0.1121E-01 (  2,  1, 83)  0.1680E-03 (  2,  1, 49)  0.3755E-05 (  2,  1, 77)  0.1071E-06 (  3,  1, 77)  0.2068E-08 (  3,  1, 47)


                                          ================================================
                                                         FROM TIME =   6420.0     TO    6430.0    

 
 SOLVING FOR HEAD 
 FLOW MODEL IS TRANSIENT
 FLOW MODEL CONTAINS CONSTANT-HEAD CELLS


 MAXIMUM STEPSIZE DURING WHICH ANY PARTICLE CANNOT MOVE MORE THAN ONE CELL
 =  5.410    (WHEN MIN. R.F.=1)  AT K=   4, I=   1, J=  74

 MAXIMUM STEPSIZE WHICH MEETS STABILITY CRITERION OF THE ADVECTION TERM
 (FOR PURE FINITE-DIFFERENCE OPTION, MIXELM=0) 
 =  3.816    (WHEN MIN. R.F.=1)  AT K=   2, I=   1, J=  43


 TOTAL NUMBER OF POINT SOURCES/SINKS PRESENT IN THE FLOW MODEL =    62

 MAXIMUM STEPSIZE WHICH MEETS STABILITY CRITERION OF THE SINK & SOURCE TERM
 =  596.3    (WHEN MIN. R.F.=1)  AT K=   2, I=   1, J= 120

 MAXIMUM STEPSIZE WHICH MEETS STABILITY CRITERION OF THE DISPERSION TERM
 =  20.29    (WHEN MIN. R.F.=1)  AT K=   1, I=   1, J=  31


     1 CALLS TO GCG PACKAGE FOR TRANSPORT TIME STEP   1 IN FLOW TIME STEP 643 STRESS PERIOD   1
     6 TOTAL ITERATIONS

 NO OUTPUT CONTROL FOR STRESS PERIOD    1   TIME STEP 643
 
 SOLVING FOR HEAD 
 FLOW MODEL IS TRANSIENT
 FLOW MODEL CONTAINS CONSTANT-HEAD CELLS


 MAXIMUM STEPSIZE DURING WHICH ANY PARTICLE CANNOT MOVE MORE THAN ONE CELL
 =  5.242    (WHEN MIN. R.F.=1)  AT K=   4, I=   1, J=  74

 MAXIMUM STEPSIZE WHICH MEETS STABILITY CRITERION OF THE ADVECTION TERM
 (FOR PURE FINITE-DIFFERENCE OPTION, MIXELM=0) 
 =  3.919    (WHEN MIN. R.F.=1)  AT K=   2, I=   1, J=  81


 TOTAL NUMBER OF POINT SOURCES/SINKS PRESENT IN THE FLOW MODEL =    62

 MAXIMUM STEPSIZE WHICH MEETS STABILITY CRITERION OF THE SINK & SOURCE TERM
 =  514.5    (WHEN MIN. R.F.=1)  AT K=   2, I=   1, J= 120

 MAXIMUM STEPSIZE WHICH MEETS STABILITY CRITERION OF THE DISPERSION TERM
 =  20.29    (WHEN MIN. R.F.=1)  AT K=   1, I=   1, J=  31
     1 CALLS TO GCG PACKAGE FOR TRANSPORT TIME STEP   2 IN FLOW TIME STEP 643 STRESS PERIOD   1
     6 TOTAL ITERATIONS
 
 SOLVING FOR HEAD 
 FLOW MODEL IS TRANSIENT
 FLOW MODEL CONTAINS CONSTANT-HEAD CELLS


 MAXIMUM STEPSIZE DURING WHICH ANY PARTICLE CANNOT MOVE MORE THAN ONE CELL
 =  5.118    (WHEN MIN. R.F.=1)  AT K=   4, I=   1, J=  74

 MAXIMUM STEPSIZE WHICH MEETS STABILITY CRITERION OF THE ADVECTION TERM
 (FOR PURE FINITE-DIFFERENCE OPTION, MIXELM=0) 
 =  4.038    (WHEN MIN. R.F.=1)  AT K=   2, I=   1, J=  81


 TOTAL NUMBER OF POINT SOURCES/SINKS PRESENT IN THE FLOW MODEL =    62

 MAXIMUM STEPSIZE WHICH MEETS STABILITY CRITERION OF THE SINK & SOURCE TERM
 =  470.3    (WHEN MIN. R.F.=1)  AT K=   2, I=   1, J= 120

 MAXIMUM STEPSIZE WHICH MEETS STABILITY CRITERION OF THE DISPERSION TERM
 =  20.29    (WHEN MIN. R.F.=1)  AT K=   1, I=   1, J=  31
     1 CALLS TO GCG PACKAGE FOR TRANSPORT TIME STEP   3 IN FLOW TIME STEP 643 STRESS PERIOD   1
     6 TOTAL ITERATIONS
 
 SOLVING FOR HEAD 
 FLOW MODEL IS TRANSIENT
 FLOW MODEL CONTAINS CONSTANT-HEAD CELLS


 MAXIMUM STEPSIZE DURING WHICH ANY PARTICLE CANNOT MOVE MORE THAN ONE CELL
 =  5.034    (WHEN MIN. R.F.=1)  AT K=   4, I=   1, J=  74

 MAXIMUM STEPSIZE WHICH MEETS STABILITY CRITERION OF THE ADVECTION TERM
 (FOR PURE FINITE-DIFFERENCE OPTION, MIXELM=0) 
 =  3.954    (WHEN MIN. R.F.=1)  AT K=   2, I=   1, J=  80


 TOTAL NUMBER OF POINT SOURCES/SINKS PRESENT IN THE FLOW MODEL =    62

 MAXIMUM STEPSIZE WHICH MEETS STABILITY CRITERION OF THE SINK & SOURCE TERM
 =  420.8    (WHEN MIN. R.F.=1)  AT K=   2, I=   1, J= 120

 MAXIMUM STEPSIZE WHICH MEETS STABILITY CRITERION OF THE DISPERSION TERM
 =  20.29    (WHEN MIN. R.F.=1)  AT K=   1, I=   1, J=  31
     1 CALLS TO GCG PACKAGE FOR TRANSPORT TIME STEP   4 IN FLOW TIME STEP 643 STRESS PERIOD   1
     5 TOTAL ITERATIONS
  MAXIMUM CONCENTRATION CHANGES FOR EACH ITERATION:
  MAX. CHANGE LAYER,ROW,COL MAX. CHANGE LAYER,ROW,COL MAX. CHANGE LAYER,ROW,COL MAX. CHANGE LAYER,ROW,COL MAX. CHANGE LAYER,ROW,COL
 ------------------------------------------------------------------------------------------------------------------------------------
   0.1593E-01 (  2,  1, 82)  0.2969E-03 (  2,  1, 44)  0.9442E-05 (  3,  1, 80)  0.2518E-06 (  3,  1, 77)  0.7435E-08 (  3,  1, 33)


                                          ================================================
                                                         FROM TIME =   6430.0     TO    6440.0    

 
 SOLVING FOR HEAD 
 FLOW MODEL IS TRANSIENT
 FLOW MODEL CONTAINS CONSTANT-HEAD CELLS


 MAXIMUM STEPSIZE DURING WHICH ANY PARTICLE CANNOT MOVE MORE THAN ONE CELL
 =  5.012    (WHEN MIN. R.F.=1)  AT K=   4, I=   1, J=  74

 MAXIMUM STEPSIZE WHICH MEETS STABILITY CRITERION OF THE ADVECTION TERM
 (FOR PURE FINITE-DIFFERENCE OPTION, MIXELM=0) 
 =  3.818    (WHEN MIN. R.F.=1)  AT K=   2, I=   1, J=  80


 TOTAL NUMBER OF POINT SOURCES/SINKS PRESENT IN THE FLOW MODEL =    62

 MAXIMUM STEPSIZE WHICH MEETS STABILITY CRITERION OF THE SINK & SOURCE TERM
 =  431.4    (WHEN MIN. R.F.=1)  AT K=   2, I=   1, J= 120

 MAXIMUM STEPSIZE WHICH MEETS STABILITY CRITERION OF THE DISPERSION TERM
 =  20.29    (WHEN MIN. R.F.=1)  AT K=   1, I=   1, J=  31


     1 CALLS TO GCG PACKAGE FOR TRANSPORT TIME STEP   1 IN FLOW TIME STEP 644 STRESS PERIOD   1
     6 TOTAL ITERATIONS

 NO OUTPUT CONTROL FOR STRESS PERIOD    1   TIME STEP 644
 
 SOLVING FOR HEAD 
 FLOW MODEL IS TRANSIENT
 FLOW MODEL CONTAINS CONSTANT-HEAD CELLS


 MAXIMUM STEPSIZE DURING WHICH ANY PARTICLE CANNOT MOVE MORE THAN ONE CELL
 =  4.991    (WHEN MIN. R.F.=1)  AT K=   4, I=   1, J=  74

 MAXIMUM STEPSIZE WHICH MEETS STABILITY CRITERION OF THE ADVECTION TERM
 (FOR PURE FINITE-DIFFERENCE OPTION, MIXELM=0) 
 =  3.648    (WHEN MIN. R.F.=1)  AT K=   2, I=   1, J=  80


 TOTAL NUMBER OF POINT SOURCES/SINKS PRESENT IN THE FLOW MODEL =    62

 MAXIMUM STEPSIZE WHICH MEETS STABILITY CRITERION OF THE SINK & SOURCE TERM
 =  383.7    (WHEN MIN. R.F.=1)  AT K=   2, I=   1, J= 120

 MAXIMUM STEPSIZE WHICH MEETS STABILITY CRITERION OF THE DISPERSION TERM
 =  20.29    (WHEN MIN. R.F.=1)  AT K=   1, I=   1, J=  31
     1 CALLS TO GCG PACKAGE FOR TRANSPORT TIME STEP   2 IN FLOW TIME STEP 644 STRESS PERIOD   1
     6 TOTAL ITERATIONS
 
 SOLVING FOR HEAD 
 FLOW MODEL IS TRANSIENT
 FLOW MODEL CONTAINS CONSTANT-HEAD CELLS


 MAXIMUM STEPSIZE DURING WHICH ANY PARTICLE CANNOT MOVE MORE THAN ONE CELL
 =  5.010    (WHEN MIN. R.F.=1)  AT K=   4, I=   1, J=  74

 MAXIMUM STEPSIZE WHICH MEETS STABILITY CRITERION OF THE ADVECTION TERM
 (FOR PURE FINITE-DIFFERENCE OPTION, MIXELM=0) 
 =  3.642    (WHEN MIN. R.F.=1)  AT K=   2, I=   1, J=  80


 TOTAL NUMBER OF POINT SOURCES/SINKS PRESENT IN THE FLOW MODEL =    62

 MAXIMUM STEPSIZE WHICH MEETS STABILITY CRITERION OF THE SINK & SOURCE TERM
 =  385.2    (WHEN MIN. R.F.=1)  AT K=   2, I=   1, J= 120

 MAXIMUM STEPSIZE WHICH MEETS STABILITY CRITERION OF THE DISPERSION TERM
 =  20.29    (WHEN MIN. R.F.=1)  AT K=   1, I=   1, J=  31
     1 CALLS TO GCG PACKAGE FOR TRANSPORT TIME STEP   3 IN FLOW TIME STEP 644 STRESS PERIOD   1
     6 TOTAL ITERATIONS
 
 SOLVING FOR HEAD 
 FLOW MODEL IS TRANSIENT
 FLOW MODEL CONTAINS CONSTANT-HEAD CELLS


 MAXIMUM STEPSIZE DURING WHICH ANY PARTICLE CANNOT MOVE MORE THAN ONE CELL
 =  5.069    (WHEN MIN. R.F.=1)  AT K=   4, I=   1, J=  74

 MAXIMUM STEPSIZE WHICH MEETS STABILITY CRITERION OF THE ADVECTION TERM
 (FOR PURE FINITE-DIFFERENCE OPTION, MIXELM=0) 
 =  3.842    (WHEN MIN. R.F.=1)  AT K=   2, I=   1, J=  80


 TOTAL NUMBER OF POINT SOURCES/SINKS PRESENT IN THE FLOW MODEL =    62

 MAXIMUM STEPSIZE WHICH MEETS STABILITY CRITERION OF THE SINK & SOURCE TERM
 =  386.7    (WHEN MIN. R.F.=1)  AT K=   2, I=   1, J= 120

 MAXIMUM STEPSIZE WHICH MEETS STABILITY CRITERION OF THE DISPERSION TERM
 =  20.29    (WHEN MIN. R.F.=1)  AT K=   1, I=   1, J=  31
     1 CALLS TO GCG PACKAGE FOR TRANSPORT TIME STEP   4 IN FLOW TIME STEP 644 STRESS PERIOD   1
     5 TOTAL ITERATIONS
  MAXIMUM CONCENTRATION CHANGES FOR EACH ITERATION:
  MAX. CHANGE LAYER,ROW,COL MAX. CHANGE LAYER,ROW,COL MAX. CHANGE LAYER,ROW,COL MAX. CHANGE LAYER,ROW,COL MAX. CHANGE LAYER,ROW,COL
 ------------------------------------------------------------------------------------------------------------------------------------
   0.1777E-01 (  2,  1, 81)  0.3776E-03 (  2,  1, 79)  0.1425E-04 (  3,  1, 79)  0.3867E-06 (  3,  1, 82)  0.1003E-07 (  3,  1, 83)


                                          ================================================
                                                         FROM TIME =   6440.0     TO    6450.0    

 
 SOLVING FOR HEAD 
 FLOW MODEL IS TRANSIENT
 FLOW MODEL CONTAINS CONSTANT-HEAD CELLS


 MAXIMUM STEPSIZE DURING WHICH ANY PARTICLE CANNOT MOVE MORE THAN ONE CELL
 =  5.093    (WHEN MIN. R.F.=1)  AT K=   5, I=   1, J=  74

 MAXIMUM STEPSIZE WHICH MEETS STABILITY CRITERION OF THE ADVECTION TERM
 (FOR PURE FINITE-DIFFERENCE OPTION, MIXELM=0) 
 =  3.992    (WHEN MIN. R.F.=1)  AT K=   2, I=   1, J=  79


 TOTAL NUMBER OF POINT SOURCES/SINKS PRESENT IN THE FLOW MODEL =    62

 MAXIMUM STEPSIZE WHICH MEETS STABILITY CRITERION OF THE SINK & SOURCE TERM
 =  408.5    (WHEN MIN. R.F.=1)  AT K=   2, I=   1, J= 120

 MAXIMUM STEPSIZE WHICH MEETS STABILITY CRITERION OF THE DISPERSION TERM
 =  20.29    (WHEN MIN. R.F.=1)  AT K=   1, I=   1, J=  31


     1 CALLS TO GCG PACKAGE FOR TRANSPORT TIME STEP   1 IN FLOW TIME STEP 645 STRESS PERIOD   1
     6 TOTAL ITERATIONS

 NO OUTPUT CONTROL FOR STRESS PERIOD    1   TIME STEP 645
 
 SOLVING FOR HEAD 
 FLOW MODEL IS TRANSIENT
 FLOW MODEL CONTAINS CONSTANT-HEAD CELLS


 MAXIMUM STEPSIZE DURING WHICH ANY PARTICLE CANNOT MOVE MORE THAN ONE CELL
 =  5.149    (WHEN MIN. R.F.=1)  AT K=   5, I=   1, J=  74

 MAXIMUM STEPSIZE WHICH MEETS STABILITY CRITERION OF THE ADVECTION TERM
 (FOR PURE FINITE-DIFFERENCE OPTION, MIXELM=0) 
 =  3.697    (WHEN MIN. R.F.=1)  AT K=   2, I=   1, J=  79


 TOTAL NUMBER OF POINT SOURCES/SINKS PRESENT IN THE FLOW MODEL =    62

 MAXIMUM STEPSIZE WHICH MEETS STABILITY CRITERION OF THE SINK & SOURCE TERM
 =  355.5    (WHEN MIN. R.F.=1)  AT K=   2, I=   1, J= 120

 MAXIMUM STEPSIZE WHICH MEETS STABILITY CRITERION OF THE DISPERSION TERM
 =  20.29    (WHEN MIN. R.F.=1)  AT K=   1, I=   1, J=  31
     1 CALLS TO GCG PACKAGE FOR TRANSPORT TIME STEP   2 IN FLOW TIME STEP 645 STRESS PERIOD   1
     6 TOTAL ITERATIONS
 
 SOLVING FOR HEAD 
 FLOW MODEL IS TRANSIENT
 FLOW MODEL CONTAINS CONSTANT-HEAD CELLS


 MAXIMUM STEPSIZE DURING WHICH ANY PARTICLE CANNOT MOVE MORE THAN ONE CELL
 =  5.241    (WHEN MIN. R.F.=1)  AT K=   5, I=   1, J=  74

 MAXIMUM STEPSIZE WHICH MEETS STABILITY CRITERION OF THE ADVECTION TERM
 (FOR PURE FINITE-DIFFERENCE OPTION, MIXELM=0) 
 =  3.569    (WHEN MIN. R.F.=1)  AT K=   2, I=   1, J=  79


 TOTAL NUMBER OF POINT SOURCES/SINKS PRESENT IN THE FLOW MODEL =    62

 MAXIMUM STEPSIZE WHICH MEETS STABILITY CRITERION OF THE SINK & SOURCE TERM
 =  345.0    (WHEN MIN. R.F.=1)  AT K=   2, I=   1, J= 120

 MAXIMUM STEPSIZE WHICH MEETS STABILITY CRITERION OF THE DISPERSION TERM
 =  20.29    (WHEN MIN. R.F.=1)  AT K=   1, I=   1, J=  31
     1 CALLS TO GCG PACKAGE FOR TRANSPORT TIME STEP   3 IN FLOW TIME STEP 645 STRESS PERIOD   1
     6 TOTAL ITERATIONS
 
 SOLVING FOR HEAD 
 FLOW MODEL IS TRANSIENT
 FLOW MODEL CONTAINS CONSTANT-HEAD CELLS


 MAXIMUM STEPSIZE DURING WHICH ANY PARTICLE CANNOT MOVE MORE THAN ONE CELL
 =  5.359    (WHEN MIN. R.F.=1)  AT K=   5, I=   1, J=  74

 MAXIMUM STEPSIZE WHICH MEETS STABILITY CRITERION OF THE ADVECTION TERM
 (FOR PURE FINITE-DIFFERENCE OPTION, MIXELM=0) 
 =  3.595    (WHEN MIN. R.F.=1)  AT K=   2, I=   1, J=  79


 TOTAL NUMBER OF POINT SOURCES/SINKS PRESENT IN THE FLOW MODEL =    62

 MAXIMUM STEPSIZE WHICH MEETS STABILITY CRITERION OF THE SINK & SOURCE TERM
 =  340.3    (WHEN MIN. R.F.=1)  AT K=   2, I=   1, J= 120

 MAXIMUM STEPSIZE WHICH MEETS STABILITY CRITERION OF THE DISPERSION TERM
 =  20.29    (WHEN MIN. R.F.=1)  AT K=   1, I=   1, J=  31
     1 CALLS TO GCG PACKAGE FOR TRANSPORT TIME STEP   4 IN FLOW TIME STEP 645 STRESS PERIOD   1
     5 TOTAL ITERATIONS
  MAXIMUM CONCENTRATION CHANGES FOR EACH ITERATION:
  MAX. CHANGE LAYER,ROW,COL MAX. CHANGE LAYER,ROW,COL MAX. CHANGE LAYER,ROW,COL MAX. CHANGE LAYER,ROW,COL MAX. CHANGE LAYER,ROW,COL
 ------------------------------------------------------------------------------------------------------------------------------------
   0.1664E-01 (  2,  1, 80)  0.3246E-03 (  2,  1, 80)  0.1047E-04 (  3,  1, 78)  0.4462E-06 (  3,  1, 76)  0.9918E-08 (  4,  1, 76)


                                          ================================================
                                                         FROM TIME =   6450.0     TO    6460.0    

 
 SOLVING FOR HEAD 
 FLOW MODEL IS TRANSIENT
 FLOW MODEL CONTAINS CONSTANT-HEAD CELLS


 MAXIMUM STEPSIZE DURING WHICH ANY PARTICLE CANNOT MOVE MORE THAN ONE CELL
 =  5.425    (WHEN MIN. R.F.=1)  AT K=   6, I=   1, J=  74

 MAXIMUM STEPSIZE WHICH MEETS STABILITY CRITERION OF THE ADVECTION TERM
 (FOR PURE FINITE-DIFFERENCE OPTION, MIXELM=0) 
 =  3.663    (WHEN MIN. R.F.=1)  AT K=   2, I=   1, J=  79


 TOTAL NUMBER OF POINT SOURCES/SINKS PRESENT IN THE FLOW MODEL =    62

 MAXIMUM STEPSIZE WHICH MEETS STABILITY CRITERION OF THE SINK & SOURCE TERM
 =  366.0    (WHEN MIN. R.F.=1)  AT K=   2, I=   1, J= 120

 MAXIMUM STEPSIZE WHICH MEETS STABILITY CRITERION OF THE DISPERSION TERM
 =  20.29    (WHEN MIN. R.F.=1)  AT K=   1, I=   1, J=  31


     1 CALLS TO GCG PACKAGE FOR TRANSPORT TIME STEP   1 IN FLOW TIME STEP 646 STRESS PERIOD   1
     6 TOTAL ITERATIONS

 NO OUTPUT CONTROL FOR STRESS PERIOD    1   TIME STEP 646
 
 SOLVING FOR HEAD 
 FLOW MODEL IS TRANSIENT
 FLOW MODEL CONTAINS CONSTANT-HEAD CELLS


 MAXIMUM STEPSIZE DURING WHICH ANY PARTICLE CANNOT MOVE MORE THAN ONE CELL
 =  5.522    (WHEN MIN. R.F.=1)  AT K=   6, I=   1, J=  74

 MAXIMUM STEPSIZE WHICH MEETS STABILITY CRITERION OF THE ADVECTION TERM
 (FOR PURE FINITE-DIFFERENCE OPTION, MIXELM=0) 
 =  3.925    (WHEN MIN. R.F.=1)  AT K=   2, I=   1, J=  79


 TOTAL NUMBER OF POINT SOURCES/SINKS PRESENT IN THE FLOW MODEL =    62

 MAXIMUM STEPSIZE WHICH MEETS STABILITY CRITERION OF THE SINK & SOURCE TERM
 =  334.0    (WHEN MIN. R.F.=1)  AT K=   2, I=   1, J= 120

 MAXIMUM STEPSIZE WHICH MEETS STABILITY CRITERION OF THE DISPERSION TERM
 =  20.29    (WHEN MIN. R.F.=1)  AT K=   1, I=   1, J=  31
     1 CALLS TO GCG PACKAGE FOR TRANSPORT TIME STEP   2 IN FLOW TIME STEP 646 STRESS PERIOD   1
     6 TOTAL ITERATIONS
 
 SOLVING FOR HEAD 
 FLOW MODEL IS TRANSIENT
 FLOW MODEL CONTAINS CONSTANT-HEAD CELLS


 MAXIMUM STEPSIZE DURING WHICH ANY PARTICLE CANNOT MOVE MORE THAN ONE CELL
 =  5.651    (WHEN MIN. R.F.=1)  AT K=   6, I=   1, J=  74

 MAXIMUM STEPSIZE WHICH MEETS STABILITY CRITERION OF THE ADVECTION TERM
 (FOR PURE FINITE-DIFFERENCE OPTION, MIXELM=0) 
 =  3.940    (WHEN MIN. R.F.=1)  AT K=   2, I=   1, J=  78


 TOTAL NUMBER OF POINT SOURCES/SINKS PRESENT IN THE FLOW MODEL =    62

 MAXIMUM STEPSIZE WHICH MEETS STABILITY CRITERION OF THE SINK & SOURCE TERM
 =  316.1    (WHEN MIN. R.F.=1)  AT K=   2, I=   1, J= 120

 MAXIMUM STEPSIZE WHICH MEETS STABILITY CRITERION OF THE DISPERSION TERM
 =  20.29    (WHEN MIN. R.F.=1)  AT K=   1, I=   1, J=  31
     1 CALLS TO GCG PACKAGE FOR TRANSPORT TIME STEP   3 IN FLOW TIME STEP 646 STRESS PERIOD   1
     6 TOTAL ITERATIONS



 >>>>>>>>>>>>>>>>>>>>>>>>>>>>>>>>>>>>>>>>>>>>>>>>>>>>>>>FOR COMPONENT NO. 01<<<<<<<<<<<<<<<<<<<<<<<<<<<<<<<<<<<<<<<<<<<<<<<<<<<<<<<


                                            -------------------------------------------
                                                      TRANSPORT STEP NO.    3
                                            -------------------------------------------

 TOTAL ELAPSED TIME SINCE BEGINNING OF SIMULATION =   6458.300    D   
 .....................................................................

                     CUMULATIVE MASS BUDGETS AT END OF TRANSPORT STEP    3, TIME STEP  646, STRESS PERIOD    1
                     ------------------------------------------------------------------------------------------

                                                             IN                           OUT
                                                      ----------------             ----------------
                               CONSTANT CONCENTRATION:    3705633.                   -2778850.    
                                        CONSTANT HEAD:    0.000000                   -1044.626    
                               MASS STOR (FLOW MODEL):    431.5754                   -634.5650    
                                MASS STORAGE (SOLUTE):    6613990.                   -7539525.    
                            ---------------------------------------------------------------------------
                                              [TOTAL]:   0.1032005E+08 KG           -0.1032005E+08 KG  

                                                          NET (IN - OUT):  -0.2112153E-01
                                                   DISCREPANCY (PERCENT):  -0.2046649E-06
 
 SOLVING FOR HEAD 
 FLOW MODEL IS TRANSIENT
 FLOW MODEL CONTAINS CONSTANT-HEAD CELLS


 MAXIMUM STEPSIZE DURING WHICH ANY PARTICLE CANNOT MOVE MORE THAN ONE CELL
 =  5.805    (WHEN MIN. R.F.=1)  AT K=   7, I=   1, J=  74

 MAXIMUM STEPSIZE WHICH MEETS STABILITY CRITERION OF THE ADVECTION TERM
 (FOR PURE FINITE-DIFFERENCE OPTION, MIXELM=0) 
 =  3.730    (WHEN MIN. R.F.=1)  AT K=   2, I=   1, J=  78


 TOTAL NUMBER OF POINT SOURCES/SINKS PRESENT IN THE FLOW MODEL =    62

 MAXIMUM STEPSIZE WHICH MEETS STABILITY CRITERION OF THE SINK & SOURCE TERM
 =  301.1    (WHEN MIN. R.F.=1)  AT K=   2, I=   1, J= 120

 MAXIMUM STEPSIZE WHICH MEETS STABILITY CRITERION OF THE DISPERSION TERM
 =  20.29    (WHEN MIN. R.F.=1)  AT K=   1, I=   1, J=  31
     1 CALLS TO GCG PACKAGE FOR TRANSPORT TIME STEP   4 IN FLOW TIME STEP 646 STRESS PERIOD   1
     5 TOTAL ITERATIONS
  MAXIMUM CONCENTRATION CHANGES FOR EACH ITERATION:
  MAX. CHANGE LAYER,ROW,COL MAX. CHANGE LAYER,ROW,COL MAX. CHANGE LAYER,ROW,COL MAX. CHANGE LAYER,ROW,COL MAX. CHANGE LAYER,ROW,COL
 ------------------------------------------------------------------------------------------------------------------------------------
   0.1871E-01 (  2,  1, 37)  0.5236E-03 (  2,  1, 78)  0.1497E-04 (  3,  1, 74)  0.6528E-06 (  3,  1, 43)  0.2282E-07 (  3,  1, 77)


                                          ================================================
                                                         FROM TIME =   6460.0     TO    6470.0    

 
 SOLVING FOR HEAD 
 FLOW MODEL IS TRANSIENT
 FLOW MODEL CONTAINS CONSTANT-HEAD CELLS


 MAXIMUM STEPSIZE DURING WHICH ANY PARTICLE CANNOT MOVE MORE THAN ONE CELL
 =  5.880    (WHEN MIN. R.F.=1)  AT K=   7, I=   1, J=  74

 MAXIMUM STEPSIZE WHICH MEETS STABILITY CRITERION OF THE ADVECTION TERM
 (FOR PURE FINITE-DIFFERENCE OPTION, MIXELM=0) 
 =  3.688    (WHEN MIN. R.F.=1)  AT K=   2, I=   1, J=  78


 TOTAL NUMBER OF POINT SOURCES/SINKS PRESENT IN THE FLOW MODEL =    62

 MAXIMUM STEPSIZE WHICH MEETS STABILITY CRITERION OF THE SINK & SOURCE TERM
 =  303.7    (WHEN MIN. R.F.=1)  AT K=   2, I=   1, J= 120

 MAXIMUM STEPSIZE WHICH MEETS STABILITY CRITERION OF THE DISPERSION TERM
 =  20.29    (WHEN MIN. R.F.=1)  AT K=   1, I=   1, J=  31


     1 CALLS TO GCG PACKAGE FOR TRANSPORT TIME STEP   1 IN FLOW TIME STEP 647 STRESS PERIOD   1
     6 TOTAL ITERATIONS

 NO OUTPUT CONTROL FOR STRESS PERIOD    1   TIME STEP 647
 
 SOLVING FOR HEAD 
 FLOW MODEL IS TRANSIENT
 FLOW MODEL CONTAINS CONSTANT-HEAD CELLS


 MAXIMUM STEPSIZE DURING WHICH ANY PARTICLE CANNOT MOVE MORE THAN ONE CELL
 =  5.905    (WHEN MIN. R.F.=1)  AT K=  28, I=   1, J=  52

 MAXIMUM STEPSIZE WHICH MEETS STABILITY CRITERION OF THE ADVECTION TERM
 (FOR PURE FINITE-DIFFERENCE OPTION, MIXELM=0) 
 =  3.702    (WHEN MIN. R.F.=1)  AT K=   2, I=   1, J=  78


 TOTAL NUMBER OF POINT SOURCES/SINKS PRESENT IN THE FLOW MODEL =    62

 MAXIMUM STEPSIZE WHICH MEETS STABILITY CRITERION OF THE SINK & SOURCE TERM
 =  287.5    (WHEN MIN. R.F.=1)  AT K=   2, I=   1, J= 120

 MAXIMUM STEPSIZE WHICH MEETS STABILITY CRITERION OF THE DISPERSION TERM
 =  20.29    (WHEN MIN. R.F.=1)  AT K=   1, I=   1, J=  31
     1 CALLS TO GCG PACKAGE FOR TRANSPORT TIME STEP   2 IN FLOW TIME STEP 647 STRESS PERIOD   1
     6 TOTAL ITERATIONS
 
 SOLVING FOR HEAD 
 FLOW MODEL IS TRANSIENT
 FLOW MODEL CONTAINS CONSTANT-HEAD CELLS


 MAXIMUM STEPSIZE DURING WHICH ANY PARTICLE CANNOT MOVE MORE THAN ONE CELL
 =  5.903    (WHEN MIN. R.F.=1)  AT K=  28, I=   1, J=  52

 MAXIMUM STEPSIZE WHICH MEETS STABILITY CRITERION OF THE ADVECTION TERM
 (FOR PURE FINITE-DIFFERENCE OPTION, MIXELM=0) 
 =  3.828    (WHEN MIN. R.F.=1)  AT K=   2, I=   1, J=  78


 TOTAL NUMBER OF POINT SOURCES/SINKS PRESENT IN THE FLOW MODEL =    62

 MAXIMUM STEPSIZE WHICH MEETS STABILITY CRITERION OF THE SINK & SOURCE TERM
 =  279.5    (WHEN MIN. R.F.=1)  AT K=   2, I=   1, J= 120

 MAXIMUM STEPSIZE WHICH MEETS STABILITY CRITERION OF THE DISPERSION TERM
 =  20.29    (WHEN MIN. R.F.=1)  AT K=   1, I=   1, J=  31
     1 CALLS TO GCG PACKAGE FOR TRANSPORT TIME STEP   3 IN FLOW TIME STEP 647 STRESS PERIOD   1
     6 TOTAL ITERATIONS
 
 SOLVING FOR HEAD 
 FLOW MODEL IS TRANSIENT
 FLOW MODEL CONTAINS CONSTANT-HEAD CELLS


 MAXIMUM STEPSIZE DURING WHICH ANY PARTICLE CANNOT MOVE MORE THAN ONE CELL
 =  5.901    (WHEN MIN. R.F.=1)  AT K=  28, I=   1, J=  52

 MAXIMUM STEPSIZE WHICH MEETS STABILITY CRITERION OF THE ADVECTION TERM
 (FOR PURE FINITE-DIFFERENCE OPTION, MIXELM=0) 
 =  4.133    (WHEN MIN. R.F.=1)  AT K=   2, I=   1, J=  78


 TOTAL NUMBER OF POINT SOURCES/SINKS PRESENT IN THE FLOW MODEL =    62

 MAXIMUM STEPSIZE WHICH MEETS STABILITY CRITERION OF THE SINK & SOURCE TERM
 =  267.1    (WHEN MIN. R.F.=1)  AT K=   2, I=   1, J= 120

 MAXIMUM STEPSIZE WHICH MEETS STABILITY CRITERION OF THE DISPERSION TERM
 =  20.29    (WHEN MIN. R.F.=1)  AT K=   1, I=   1, J=  31
     1 CALLS TO GCG PACKAGE FOR TRANSPORT TIME STEP   4 IN FLOW TIME STEP 647 STRESS PERIOD   1
     5 TOTAL ITERATIONS
  MAXIMUM CONCENTRATION CHANGES FOR EACH ITERATION:
  MAX. CHANGE LAYER,ROW,COL MAX. CHANGE LAYER,ROW,COL MAX. CHANGE LAYER,ROW,COL MAX. CHANGE LAYER,ROW,COL MAX. CHANGE LAYER,ROW,COL
 ------------------------------------------------------------------------------------------------------------------------------------
   0.2031E-01 (  2,  1, 79)  0.5716E-03 (  2,  1, 77)  0.1920E-04 (  3,  1, 77)  0.6093E-06 (  3,  1, 80)  0.2104E-07 (  5,  1, 80)


                                          ================================================
                                                         FROM TIME =   6470.0     TO    6480.0    

 
 SOLVING FOR HEAD 
 FLOW MODEL IS TRANSIENT
 FLOW MODEL CONTAINS CONSTANT-HEAD CELLS


 MAXIMUM STEPSIZE DURING WHICH ANY PARTICLE CANNOT MOVE MORE THAN ONE CELL
 =  5.905    (WHEN MIN. R.F.=1)  AT K=  28, I=   1, J=  52

 MAXIMUM STEPSIZE WHICH MEETS STABILITY CRITERION OF THE ADVECTION TERM
 (FOR PURE FINITE-DIFFERENCE OPTION, MIXELM=0) 
 =  4.289    (WHEN MIN. R.F.=1)  AT K=   2, I=   1, J=  77


 TOTAL NUMBER OF POINT SOURCES/SINKS PRESENT IN THE FLOW MODEL =    62

 MAXIMUM STEPSIZE WHICH MEETS STABILITY CRITERION OF THE SINK & SOURCE TERM
 =  264.0    (WHEN MIN. R.F.=1)  AT K=   2, I=   1, J= 120

 MAXIMUM STEPSIZE WHICH MEETS STABILITY CRITERION OF THE DISPERSION TERM
 =  20.29    (WHEN MIN. R.F.=1)  AT K=   1, I=   1, J=  31


     1 CALLS TO GCG PACKAGE FOR TRANSPORT TIME STEP   1 IN FLOW TIME STEP 648 STRESS PERIOD   1
     6 TOTAL ITERATIONS

 NO OUTPUT CONTROL FOR STRESS PERIOD    1   TIME STEP 648
 
 SOLVING FOR HEAD 
 FLOW MODEL IS TRANSIENT
 FLOW MODEL CONTAINS CONSTANT-HEAD CELLS


 MAXIMUM STEPSIZE DURING WHICH ANY PARTICLE CANNOT MOVE MORE THAN ONE CELL
 =  5.574    (WHEN MIN. R.F.=1)  AT K=   4, I=   1, J=  47

 MAXIMUM STEPSIZE WHICH MEETS STABILITY CRITERION OF THE ADVECTION TERM
 (FOR PURE FINITE-DIFFERENCE OPTION, MIXELM=0) 
 =  3.989    (WHEN MIN. R.F.=1)  AT K=   2, I=   1, J=  77


 TOTAL NUMBER OF POINT SOURCES/SINKS PRESENT IN THE FLOW MODEL =    62

 MAXIMUM STEPSIZE WHICH MEETS STABILITY CRITERION OF THE SINK & SOURCE TERM
 =  248.8    (WHEN MIN. R.F.=1)  AT K=   2, I=   1, J= 120

 MAXIMUM STEPSIZE WHICH MEETS STABILITY CRITERION OF THE DISPERSION TERM
 =  20.29    (WHEN MIN. R.F.=1)  AT K=   1, I=   1, J=  31
     1 CALLS TO GCG PACKAGE FOR TRANSPORT TIME STEP   2 IN FLOW TIME STEP 648 STRESS PERIOD   1
     6 TOTAL ITERATIONS
 
 SOLVING FOR HEAD 
 FLOW MODEL IS TRANSIENT
 FLOW MODEL CONTAINS CONSTANT-HEAD CELLS


 MAXIMUM STEPSIZE DURING WHICH ANY PARTICLE CANNOT MOVE MORE THAN ONE CELL
 =  5.309    (WHEN MIN. R.F.=1)  AT K=   4, I=   1, J=  47

 MAXIMUM STEPSIZE WHICH MEETS STABILITY CRITERION OF THE ADVECTION TERM
 (FOR PURE FINITE-DIFFERENCE OPTION, MIXELM=0) 
 =  3.876    (WHEN MIN. R.F.=1)  AT K=   2, I=   1, J=  77


 TOTAL NUMBER OF POINT SOURCES/SINKS PRESENT IN THE FLOW MODEL =    62

 MAXIMUM STEPSIZE WHICH MEETS STABILITY CRITERION OF THE SINK & SOURCE TERM
 =  247.9    (WHEN MIN. R.F.=1)  AT K=   2, I=   1, J= 120

 MAXIMUM STEPSIZE WHICH MEETS STABILITY CRITERION OF THE DISPERSION TERM
 =  20.29    (WHEN MIN. R.F.=1)  AT K=   1, I=   1, J=  31
     1 CALLS TO GCG PACKAGE FOR TRANSPORT TIME STEP   3 IN FLOW TIME STEP 648 STRESS PERIOD   1
     6 TOTAL ITERATIONS
 
 SOLVING FOR HEAD 
 FLOW MODEL IS TRANSIENT
 FLOW MODEL CONTAINS CONSTANT-HEAD CELLS


 MAXIMUM STEPSIZE DURING WHICH ANY PARTICLE CANNOT MOVE MORE THAN ONE CELL
 =  5.148    (WHEN MIN. R.F.=1)  AT K=   4, I=   1, J=  47

 MAXIMUM STEPSIZE WHICH MEETS STABILITY CRITERION OF THE ADVECTION TERM
 (FOR PURE FINITE-DIFFERENCE OPTION, MIXELM=0) 
 =  3.903    (WHEN MIN. R.F.=1)  AT K=   2, I=   1, J=  77


 TOTAL NUMBER OF POINT SOURCES/SINKS PRESENT IN THE FLOW MODEL =    62

 MAXIMUM STEPSIZE WHICH MEETS STABILITY CRITERION OF THE SINK & SOURCE TERM
 =  244.6    (WHEN MIN. R.F.=1)  AT K=   2, I=   1, J= 120

 MAXIMUM STEPSIZE WHICH MEETS STABILITY CRITERION OF THE DISPERSION TERM
 =  20.29    (WHEN MIN. R.F.=1)  AT K=   1, I=   1, J=  31
     1 CALLS TO GCG PACKAGE FOR TRANSPORT TIME STEP   4 IN FLOW TIME STEP 648 STRESS PERIOD   1
     4 TOTAL ITERATIONS
  MAXIMUM CONCENTRATION CHANGES FOR EACH ITERATION:
  MAX. CHANGE LAYER,ROW,COL MAX. CHANGE LAYER,ROW,COL MAX. CHANGE LAYER,ROW,COL MAX. CHANGE LAYER,ROW,COL MAX. CHANGE LAYER,ROW,COL
 ------------------------------------------------------------------------------------------------------------------------------------
   0.8034E-02 (  2,  1, 78)  0.9457E-04 (  2,  1, 78)  0.1391E-05 (  2,  1, 79)  0.2333E-07 (  3,  1, 79)


                                          ================================================
                                                         FROM TIME =   6480.0     TO    6490.0    

 
 SOLVING FOR HEAD 
 FLOW MODEL IS TRANSIENT
 FLOW MODEL CONTAINS CONSTANT-HEAD CELLS


 MAXIMUM STEPSIZE DURING WHICH ANY PARTICLE CANNOT MOVE MORE THAN ONE CELL
 =  5.122    (WHEN MIN. R.F.=1)  AT K=   4, I=   1, J=  47

 MAXIMUM STEPSIZE WHICH MEETS STABILITY CRITERION OF THE ADVECTION TERM
 (FOR PURE FINITE-DIFFERENCE OPTION, MIXELM=0) 
 =  3.933    (WHEN MIN. R.F.=1)  AT K=   2, I=   1, J=  77


 TOTAL NUMBER OF POINT SOURCES/SINKS PRESENT IN THE FLOW MODEL =    62

 MAXIMUM STEPSIZE WHICH MEETS STABILITY CRITERION OF THE SINK & SOURCE TERM
 =  245.5    (WHEN MIN. R.F.=1)  AT K=   2, I=   1, J= 120

 MAXIMUM STEPSIZE WHICH MEETS STABILITY CRITERION OF THE DISPERSION TERM
 =  20.29    (WHEN MIN. R.F.=1)  AT K=   1, I=   1, J=  31


     1 CALLS TO GCG PACKAGE FOR TRANSPORT TIME STEP   1 IN FLOW TIME STEP 649 STRESS PERIOD   1
     6 TOTAL ITERATIONS

 NO OUTPUT CONTROL FOR STRESS PERIOD    1   TIME STEP 649
 
 SOLVING FOR HEAD 
 FLOW MODEL IS TRANSIENT
 FLOW MODEL CONTAINS CONSTANT-HEAD CELLS


 MAXIMUM STEPSIZE DURING WHICH ANY PARTICLE CANNOT MOVE MORE THAN ONE CELL
 =  5.055    (WHEN MIN. R.F.=1)  AT K=   4, I=   1, J=  47

 MAXIMUM STEPSIZE WHICH MEETS STABILITY CRITERION OF THE ADVECTION TERM
 (FOR PURE FINITE-DIFFERENCE OPTION, MIXELM=0) 
 =  4.111    (WHEN MIN. R.F.=1)  AT K=   2, I=   1, J=  77


 TOTAL NUMBER OF POINT SOURCES/SINKS PRESENT IN THE FLOW MODEL =    62

 MAXIMUM STEPSIZE WHICH MEETS STABILITY CRITERION OF THE SINK & SOURCE TERM
 =  225.0    (WHEN MIN. R.F.=1)  AT K=   2, I=   1, J= 120

 MAXIMUM STEPSIZE WHICH MEETS STABILITY CRITERION OF THE DISPERSION TERM
 =  20.29    (WHEN MIN. R.F.=1)  AT K=   1, I=   1, J=  31
     1 CALLS TO GCG PACKAGE FOR TRANSPORT TIME STEP   2 IN FLOW TIME STEP 649 STRESS PERIOD   1
     6 TOTAL ITERATIONS
 
 SOLVING FOR HEAD 
 FLOW MODEL IS TRANSIENT
 FLOW MODEL CONTAINS CONSTANT-HEAD CELLS


 MAXIMUM STEPSIZE DURING WHICH ANY PARTICLE CANNOT MOVE MORE THAN ONE CELL
 =  5.050    (WHEN MIN. R.F.=1)  AT K=   4, I=   1, J=  47

 MAXIMUM STEPSIZE WHICH MEETS STABILITY CRITERION OF THE ADVECTION TERM
 (FOR PURE FINITE-DIFFERENCE OPTION, MIXELM=0) 
 =  3.927    (WHEN MIN. R.F.=1)  AT K=   2, I=   1, J=  41


 TOTAL NUMBER OF POINT SOURCES/SINKS PRESENT IN THE FLOW MODEL =    62

 MAXIMUM STEPSIZE WHICH MEETS STABILITY CRITERION OF THE SINK & SOURCE TERM
 =  213.3    (WHEN MIN. R.F.=1)  AT K=   2, I=   1, J= 120

 MAXIMUM STEPSIZE WHICH MEETS STABILITY CRITERION OF THE DISPERSION TERM
 =  20.29    (WHEN MIN. R.F.=1)  AT K=   1, I=   1, J=  31
     1 CALLS TO GCG PACKAGE FOR TRANSPORT TIME STEP   3 IN FLOW TIME STEP 649 STRESS PERIOD   1
     6 TOTAL ITERATIONS
 
 SOLVING FOR HEAD 
 FLOW MODEL IS TRANSIENT
 FLOW MODEL CONTAINS CONSTANT-HEAD CELLS


 MAXIMUM STEPSIZE DURING WHICH ANY PARTICLE CANNOT MOVE MORE THAN ONE CELL
 =  5.100    (WHEN MIN. R.F.=1)  AT K=   4, I=   1, J=  47

 MAXIMUM STEPSIZE WHICH MEETS STABILITY CRITERION OF THE ADVECTION TERM
 (FOR PURE FINITE-DIFFERENCE OPTION, MIXELM=0) 
 =  3.809    (WHEN MIN. R.F.=1)  AT K=   2, I=   1, J=  41


 TOTAL NUMBER OF POINT SOURCES/SINKS PRESENT IN THE FLOW MODEL =    62

 MAXIMUM STEPSIZE WHICH MEETS STABILITY CRITERION OF THE SINK & SOURCE TERM
 =  209.6    (WHEN MIN. R.F.=1)  AT K=   2, I=   1, J= 120

 MAXIMUM STEPSIZE WHICH MEETS STABILITY CRITERION OF THE DISPERSION TERM
 =  20.29    (WHEN MIN. R.F.=1)  AT K=   1, I=   1, J=  31
     1 CALLS TO GCG PACKAGE FOR TRANSPORT TIME STEP   4 IN FLOW TIME STEP 649 STRESS PERIOD   1
     5 TOTAL ITERATIONS
  MAXIMUM CONCENTRATION CHANGES FOR EACH ITERATION:
  MAX. CHANGE LAYER,ROW,COL MAX. CHANGE LAYER,ROW,COL MAX. CHANGE LAYER,ROW,COL MAX. CHANGE LAYER,ROW,COL MAX. CHANGE LAYER,ROW,COL
 ------------------------------------------------------------------------------------------------------------------------------------
   0.1095E-01 (  2,  1, 31)  0.2024E-03 (  2,  1, 76)  0.4181E-05 (  3,  1, 42)  0.1105E-06 (  3,  1, 44)  0.2233E-08 (  4,  1, 44)


                                          ================================================
                                                         FROM TIME =   6490.0     TO    6500.0    

 
 SOLVING FOR HEAD 
 FLOW MODEL IS TRANSIENT
 FLOW MODEL CONTAINS CONSTANT-HEAD CELLS


 MAXIMUM STEPSIZE DURING WHICH ANY PARTICLE CANNOT MOVE MORE THAN ONE CELL
 =  5.134    (WHEN MIN. R.F.=1)  AT K=   4, I=   1, J=  47

 MAXIMUM STEPSIZE WHICH MEETS STABILITY CRITERION OF THE ADVECTION TERM
 (FOR PURE FINITE-DIFFERENCE OPTION, MIXELM=0) 
 =  3.806    (WHEN MIN. R.F.=1)  AT K=   2, I=   1, J=  41


 TOTAL NUMBER OF POINT SOURCES/SINKS PRESENT IN THE FLOW MODEL =    62

 MAXIMUM STEPSIZE WHICH MEETS STABILITY CRITERION OF THE SINK & SOURCE TERM
 =  225.6    (WHEN MIN. R.F.=1)  AT K=   2, I=   1, J= 120

 MAXIMUM STEPSIZE WHICH MEETS STABILITY CRITERION OF THE DISPERSION TERM
 =  20.29    (WHEN MIN. R.F.=1)  AT K=   1, I=   1, J=  31


     1 CALLS TO GCG PACKAGE FOR TRANSPORT TIME STEP   1 IN FLOW TIME STEP 650 STRESS PERIOD   1
     6 TOTAL ITERATIONS

 NO OUTPUT CONTROL FOR STRESS PERIOD    1   TIME STEP 650
 
 SOLVING FOR HEAD 
 FLOW MODEL IS TRANSIENT
 FLOW MODEL CONTAINS CONSTANT-HEAD CELLS


 MAXIMUM STEPSIZE DURING WHICH ANY PARTICLE CANNOT MOVE MORE THAN ONE CELL
 =  5.188    (WHEN MIN. R.F.=1)  AT K=   5, I=   1, J=  47

 MAXIMUM STEPSIZE WHICH MEETS STABILITY CRITERION OF THE ADVECTION TERM
 (FOR PURE FINITE-DIFFERENCE OPTION, MIXELM=0) 
 =  3.898    (WHEN MIN. R.F.=1)  AT K=   2, I=   1, J=  41


 TOTAL NUMBER OF POINT SOURCES/SINKS PRESENT IN THE FLOW MODEL =    62

 MAXIMUM STEPSIZE WHICH MEETS STABILITY CRITERION OF THE SINK & SOURCE TERM
 =  211.5    (WHEN MIN. R.F.=1)  AT K=   2, I=   1, J= 120

 MAXIMUM STEPSIZE WHICH MEETS STABILITY CRITERION OF THE DISPERSION TERM
 =  20.29    (WHEN MIN. R.F.=1)  AT K=   1, I=   1, J=  31
     1 CALLS TO GCG PACKAGE FOR TRANSPORT TIME STEP   2 IN FLOW TIME STEP 650 STRESS PERIOD   1
     6 TOTAL ITERATIONS
 
 SOLVING FOR HEAD 
 FLOW MODEL IS TRANSIENT
 FLOW MODEL CONTAINS CONSTANT-HEAD CELLS


 MAXIMUM STEPSIZE DURING WHICH ANY PARTICLE CANNOT MOVE MORE THAN ONE CELL
 =  5.271    (WHEN MIN. R.F.=1)  AT K=   5, I=   1, J=  47

 MAXIMUM STEPSIZE WHICH MEETS STABILITY CRITERION OF THE ADVECTION TERM
 (FOR PURE FINITE-DIFFERENCE OPTION, MIXELM=0) 
 =  4.130    (WHEN MIN. R.F.=1)  AT K=   2, I=   1, J=  42


 TOTAL NUMBER OF POINT SOURCES/SINKS PRESENT IN THE FLOW MODEL =    62

 MAXIMUM STEPSIZE WHICH MEETS STABILITY CRITERION OF THE SINK & SOURCE TERM
 =  205.0    (WHEN MIN. R.F.=1)  AT K=   2, I=   1, J= 120

 MAXIMUM STEPSIZE WHICH MEETS STABILITY CRITERION OF THE DISPERSION TERM
 =  20.29    (WHEN MIN. R.F.=1)  AT K=   1, I=   1, J=  31
     1 CALLS TO GCG PACKAGE FOR TRANSPORT TIME STEP   3 IN FLOW TIME STEP 650 STRESS PERIOD   1
     6 TOTAL ITERATIONS
 
 SOLVING FOR HEAD 
 FLOW MODEL IS TRANSIENT
 FLOW MODEL CONTAINS CONSTANT-HEAD CELLS


 MAXIMUM STEPSIZE DURING WHICH ANY PARTICLE CANNOT MOVE MORE THAN ONE CELL
 =  5.391    (WHEN MIN. R.F.=1)  AT K=   5, I=   1, J=  47

 MAXIMUM STEPSIZE WHICH MEETS STABILITY CRITERION OF THE ADVECTION TERM
 (FOR PURE FINITE-DIFFERENCE OPTION, MIXELM=0) 
 =  3.855    (WHEN MIN. R.F.=1)  AT K=   2, I=   1, J=  42


 TOTAL NUMBER OF POINT SOURCES/SINKS PRESENT IN THE FLOW MODEL =    62

 MAXIMUM STEPSIZE WHICH MEETS STABILITY CRITERION OF THE SINK & SOURCE TERM
 =  197.8    (WHEN MIN. R.F.=1)  AT K=   2, I=   1, J= 120

 MAXIMUM STEPSIZE WHICH MEETS STABILITY CRITERION OF THE DISPERSION TERM
 =  20.29    (WHEN MIN. R.F.=1)  AT K=   1, I=   1, J=  31
     1 CALLS TO GCG PACKAGE FOR TRANSPORT TIME STEP   4 IN FLOW TIME STEP 650 STRESS PERIOD   1
     5 TOTAL ITERATIONS
  MAXIMUM CONCENTRATION CHANGES FOR EACH ITERATION:
  MAX. CHANGE LAYER,ROW,COL MAX. CHANGE LAYER,ROW,COL MAX. CHANGE LAYER,ROW,COL MAX. CHANGE LAYER,ROW,COL MAX. CHANGE LAYER,ROW,COL
 ------------------------------------------------------------------------------------------------------------------------------------
   0.1628E-01 (  2,  1, 77)  0.3114E-03 (  3,  1, 79)  0.1047E-04 (  2,  1, 78)  0.4469E-06 (  3,  1, 45)  0.1101E-07 (  4,  1, 45)


                                          ================================================
                                                         FROM TIME =   6500.0     TO    6510.0    

 
 SOLVING FOR HEAD 
 FLOW MODEL IS TRANSIENT
 FLOW MODEL CONTAINS CONSTANT-HEAD CELLS


 MAXIMUM STEPSIZE DURING WHICH ANY PARTICLE CANNOT MOVE MORE THAN ONE CELL
 =  5.464    (WHEN MIN. R.F.=1)  AT K=   5, I=   1, J=  47

 MAXIMUM STEPSIZE WHICH MEETS STABILITY CRITERION OF THE ADVECTION TERM
 (FOR PURE FINITE-DIFFERENCE OPTION, MIXELM=0) 
 =  3.793    (WHEN MIN. R.F.=1)  AT K=   2, I=   1, J=  42


 TOTAL NUMBER OF POINT SOURCES/SINKS PRESENT IN THE FLOW MODEL =    62

 MAXIMUM STEPSIZE WHICH MEETS STABILITY CRITERION OF THE SINK & SOURCE TERM
 =  195.3    (WHEN MIN. R.F.=1)  AT K=   2, I=   1, J= 120

 MAXIMUM STEPSIZE WHICH MEETS STABILITY CRITERION OF THE DISPERSION TERM
 =  20.29    (WHEN MIN. R.F.=1)  AT K=   1, I=   1, J=  31


     1 CALLS TO GCG PACKAGE FOR TRANSPORT TIME STEP   1 IN FLOW TIME STEP 651 STRESS PERIOD   1
     6 TOTAL ITERATIONS

 NO OUTPUT CONTROL FOR STRESS PERIOD    1   TIME STEP 651
 
 SOLVING FOR HEAD 
 FLOW MODEL IS TRANSIENT
 FLOW MODEL CONTAINS CONSTANT-HEAD CELLS


 MAXIMUM STEPSIZE DURING WHICH ANY PARTICLE CANNOT MOVE MORE THAN ONE CELL
 =  5.587    (WHEN MIN. R.F.=1)  AT K=   6, I=   1, J=  47

 MAXIMUM STEPSIZE WHICH MEETS STABILITY CRITERION OF THE ADVECTION TERM
 (FOR PURE FINITE-DIFFERENCE OPTION, MIXELM=0) 
 =  3.760    (WHEN MIN. R.F.=1)  AT K=   2, I=   1, J=  42


 TOTAL NUMBER OF POINT SOURCES/SINKS PRESENT IN THE FLOW MODEL =    62

 MAXIMUM STEPSIZE WHICH MEETS STABILITY CRITERION OF THE SINK & SOURCE TERM
 =  184.1    (WHEN MIN. R.F.=1)  AT K=   2, I=   1, J= 120

 MAXIMUM STEPSIZE WHICH MEETS STABILITY CRITERION OF THE DISPERSION TERM
 =  20.29    (WHEN MIN. R.F.=1)  AT K=   1, I=   1, J=  31
     1 CALLS TO GCG PACKAGE FOR TRANSPORT TIME STEP   2 IN FLOW TIME STEP 651 STRESS PERIOD   1
     6 TOTAL ITERATIONS
 
 SOLVING FOR HEAD 
 FLOW MODEL IS TRANSIENT
 FLOW MODEL CONTAINS CONSTANT-HEAD CELLS


 MAXIMUM STEPSIZE DURING WHICH ANY PARTICLE CANNOT MOVE MORE THAN ONE CELL
 =  5.711    (WHEN MIN. R.F.=1)  AT K=   6, I=   1, J=  47

 MAXIMUM STEPSIZE WHICH MEETS STABILITY CRITERION OF THE ADVECTION TERM
 (FOR PURE FINITE-DIFFERENCE OPTION, MIXELM=0) 
 =  3.834    (WHEN MIN. R.F.=1)  AT K=   2, I=   1, J=  42


 TOTAL NUMBER OF POINT SOURCES/SINKS PRESENT IN THE FLOW MODEL =    62

 MAXIMUM STEPSIZE WHICH MEETS STABILITY CRITERION OF THE SINK & SOURCE TERM
 =  184.4    (WHEN MIN. R.F.=1)  AT K=   2, I=   1, J= 120

 MAXIMUM STEPSIZE WHICH MEETS STABILITY CRITERION OF THE DISPERSION TERM
 =  20.29    (WHEN MIN. R.F.=1)  AT K=   1, I=   1, J=  31
     1 CALLS TO GCG PACKAGE FOR TRANSPORT TIME STEP   3 IN FLOW TIME STEP 651 STRESS PERIOD   1
     6 TOTAL ITERATIONS
 
 SOLVING FOR HEAD 
 FLOW MODEL IS TRANSIENT
 FLOW MODEL CONTAINS CONSTANT-HEAD CELLS


 MAXIMUM STEPSIZE DURING WHICH ANY PARTICLE CANNOT MOVE MORE THAN ONE CELL
 =  5.864    (WHEN MIN. R.F.=1)  AT K=   6, I=   1, J=  47

 MAXIMUM STEPSIZE WHICH MEETS STABILITY CRITERION OF THE ADVECTION TERM
 (FOR PURE FINITE-DIFFERENCE OPTION, MIXELM=0) 
 =  4.079    (WHEN MIN. R.F.=1)  AT K=   2, I=   1, J=  42


 TOTAL NUMBER OF POINT SOURCES/SINKS PRESENT IN THE FLOW MODEL =    62

 MAXIMUM STEPSIZE WHICH MEETS STABILITY CRITERION OF THE SINK & SOURCE TERM
 =  181.4    (WHEN MIN. R.F.=1)  AT K=   2, I=   1, J= 120

 MAXIMUM STEPSIZE WHICH MEETS STABILITY CRITERION OF THE DISPERSION TERM
 =  20.29    (WHEN MIN. R.F.=1)  AT K=   1, I=   1, J=  31
     1 CALLS TO GCG PACKAGE FOR TRANSPORT TIME STEP   4 IN FLOW TIME STEP 651 STRESS PERIOD   1
     5 TOTAL ITERATIONS
  MAXIMUM CONCENTRATION CHANGES FOR EACH ITERATION:
  MAX. CHANGE LAYER,ROW,COL MAX. CHANGE LAYER,ROW,COL MAX. CHANGE LAYER,ROW,COL MAX. CHANGE LAYER,ROW,COL MAX. CHANGE LAYER,ROW,COL
 ------------------------------------------------------------------------------------------------------------------------------------
   0.1779E-01 (  2,  1, 83)  0.3692E-03 (  3,  1, 78)  0.9845E-05 (  3,  1, 43)  0.4012E-06 (  3,  1, 45)  0.1021E-07 (  4,  1, 74)


                                          ================================================
                                                         FROM TIME =   6510.0     TO    6520.0    

 
 SOLVING FOR HEAD 
 FLOW MODEL IS TRANSIENT
 FLOW MODEL CONTAINS CONSTANT-HEAD CELLS


 MAXIMUM STEPSIZE DURING WHICH ANY PARTICLE CANNOT MOVE MORE THAN ONE CELL
 =  5.915    (WHEN MIN. R.F.=1)  AT K=  28, I=   1, J=  52

 MAXIMUM STEPSIZE WHICH MEETS STABILITY CRITERION OF THE ADVECTION TERM
 (FOR PURE FINITE-DIFFERENCE OPTION, MIXELM=0) 
 =  4.171    (WHEN MIN. R.F.=1)  AT K=   2, I=   1, J=  43


 TOTAL NUMBER OF POINT SOURCES/SINKS PRESENT IN THE FLOW MODEL =    62

 MAXIMUM STEPSIZE WHICH MEETS STABILITY CRITERION OF THE SINK & SOURCE TERM
 =  178.7    (WHEN MIN. R.F.=1)  AT K=   2, I=   1, J= 120

 MAXIMUM STEPSIZE WHICH MEETS STABILITY CRITERION OF THE DISPERSION TERM
 =  20.29    (WHEN MIN. R.F.=1)  AT K=   1, I=   1, J=  31


     1 CALLS TO GCG PACKAGE FOR TRANSPORT TIME STEP   1 IN FLOW TIME STEP 652 STRESS PERIOD   1
     6 TOTAL ITERATIONS

 NO OUTPUT CONTROL FOR STRESS PERIOD    1   TIME STEP 652
 
 SOLVING FOR HEAD 
 FLOW MODEL IS TRANSIENT
 FLOW MODEL CONTAINS CONSTANT-HEAD CELLS


 MAXIMUM STEPSIZE DURING WHICH ANY PARTICLE CANNOT MOVE MORE THAN ONE CELL
 =  5.628    (WHEN MIN. R.F.=1)  AT K=   4, I=   1, J=  74

 MAXIMUM STEPSIZE WHICH MEETS STABILITY CRITERION OF THE ADVECTION TERM
 (FOR PURE FINITE-DIFFERENCE OPTION, MIXELM=0) 
 =  3.898    (WHEN MIN. R.F.=1)  AT K=   2, I=   1, J=  43


 TOTAL NUMBER OF POINT SOURCES/SINKS PRESENT IN THE FLOW MODEL =    62

 MAXIMUM STEPSIZE WHICH MEETS STABILITY CRITERION OF THE SINK & SOURCE TERM
 =  168.9    (WHEN MIN. R.F.=1)  AT K=   2, I=   1, J= 120

 MAXIMUM STEPSIZE WHICH MEETS STABILITY CRITERION OF THE DISPERSION TERM
 =  20.29    (WHEN MIN. R.F.=1)  AT K=   1, I=   1, J=  31
     1 CALLS TO GCG PACKAGE FOR TRANSPORT TIME STEP   2 IN FLOW TIME STEP 652 STRESS PERIOD   1
     6 TOTAL ITERATIONS
 
 SOLVING FOR HEAD 
 FLOW MODEL IS TRANSIENT
 FLOW MODEL CONTAINS CONSTANT-HEAD CELLS


 MAXIMUM STEPSIZE DURING WHICH ANY PARTICLE CANNOT MOVE MORE THAN ONE CELL
 =  5.393    (WHEN MIN. R.F.=1)  AT K=   4, I=   1, J=  74

 MAXIMUM STEPSIZE WHICH MEETS STABILITY CRITERION OF THE ADVECTION TERM
 (FOR PURE FINITE-DIFFERENCE OPTION, MIXELM=0) 
 =  3.806    (WHEN MIN. R.F.=1)  AT K=   2, I=   1, J=  43


 TOTAL NUMBER OF POINT SOURCES/SINKS PRESENT IN THE FLOW MODEL =    62

 MAXIMUM STEPSIZE WHICH MEETS STABILITY CRITERION OF THE SINK & SOURCE TERM
 =  169.2    (WHEN MIN. R.F.=1)  AT K=   2, I=   1, J= 120

 MAXIMUM STEPSIZE WHICH MEETS STABILITY CRITERION OF THE DISPERSION TERM
 =  20.29    (WHEN MIN. R.F.=1)  AT K=   1, I=   1, J=  31
     1 CALLS TO GCG PACKAGE FOR TRANSPORT TIME STEP   3 IN FLOW TIME STEP 652 STRESS PERIOD   1
     6 TOTAL ITERATIONS
 
 SOLVING FOR HEAD 
 FLOW MODEL IS TRANSIENT
 FLOW MODEL CONTAINS CONSTANT-HEAD CELLS


 MAXIMUM STEPSIZE DURING WHICH ANY PARTICLE CANNOT MOVE MORE THAN ONE CELL
 =  5.229    (WHEN MIN. R.F.=1)  AT K=   4, I=   1, J=  74

 MAXIMUM STEPSIZE WHICH MEETS STABILITY CRITERION OF THE ADVECTION TERM
 (FOR PURE FINITE-DIFFERENCE OPTION, MIXELM=0) 
 =  3.851    (WHEN MIN. R.F.=1)  AT K=   2, I=   1, J=  43


 TOTAL NUMBER OF POINT SOURCES/SINKS PRESENT IN THE FLOW MODEL =    62

 MAXIMUM STEPSIZE WHICH MEETS STABILITY CRITERION OF THE SINK & SOURCE TERM
 =  169.3    (WHEN MIN. R.F.=1)  AT K=   2, I=   1, J= 120

 MAXIMUM STEPSIZE WHICH MEETS STABILITY CRITERION OF THE DISPERSION TERM
 =  20.29    (WHEN MIN. R.F.=1)  AT K=   1, I=   1, J=  31
     1 CALLS TO GCG PACKAGE FOR TRANSPORT TIME STEP   4 IN FLOW TIME STEP 652 STRESS PERIOD   1
     4 TOTAL ITERATIONS
  MAXIMUM CONCENTRATION CHANGES FOR EACH ITERATION:
  MAX. CHANGE LAYER,ROW,COL MAX. CHANGE LAYER,ROW,COL MAX. CHANGE LAYER,ROW,COL MAX. CHANGE LAYER,ROW,COL MAX. CHANGE LAYER,ROW,COL
 ------------------------------------------------------------------------------------------------------------------------------------
   0.1109E-01 (  2,  1, 82)  0.1743E-03 (  2,  1, 82)  0.3189E-05 (  2,  1, 83)  0.6147E-07 (  3,  1, 83)


                                          ================================================
                                                         FROM TIME =   6520.0     TO    6530.0    

 
 SOLVING FOR HEAD 
 FLOW MODEL IS TRANSIENT
 FLOW MODEL CONTAINS CONSTANT-HEAD CELLS


 MAXIMUM STEPSIZE DURING WHICH ANY PARTICLE CANNOT MOVE MORE THAN ONE CELL
 =  5.189    (WHEN MIN. R.F.=1)  AT K=   4, I=   1, J=  74

 MAXIMUM STEPSIZE WHICH MEETS STABILITY CRITERION OF THE ADVECTION TERM
 (FOR PURE FINITE-DIFFERENCE OPTION, MIXELM=0) 
 =  3.887    (WHEN MIN. R.F.=1)  AT K=   2, I=   1, J=  43


 TOTAL NUMBER OF POINT SOURCES/SINKS PRESENT IN THE FLOW MODEL =    62

 MAXIMUM STEPSIZE WHICH MEETS STABILITY CRITERION OF THE SINK & SOURCE TERM
 =  173.4    (WHEN MIN. R.F.=1)  AT K=   2, I=   1, J= 120

 MAXIMUM STEPSIZE WHICH MEETS STABILITY CRITERION OF THE DISPERSION TERM
 =  20.29    (WHEN MIN. R.F.=1)  AT K=   1, I=   1, J=  31


     1 CALLS TO GCG PACKAGE FOR TRANSPORT TIME STEP   1 IN FLOW TIME STEP 653 STRESS PERIOD   1
     6 TOTAL ITERATIONS

 NO OUTPUT CONTROL FOR STRESS PERIOD    1   TIME STEP 653
 
 SOLVING FOR HEAD 
 FLOW MODEL IS TRANSIENT
 FLOW MODEL CONTAINS CONSTANT-HEAD CELLS


 MAXIMUM STEPSIZE DURING WHICH ANY PARTICLE CANNOT MOVE MORE THAN ONE CELL
 =  5.087    (WHEN MIN. R.F.=1)  AT K=   4, I=   1, J=  74

 MAXIMUM STEPSIZE WHICH MEETS STABILITY CRITERION OF THE ADVECTION TERM
 (FOR PURE FINITE-DIFFERENCE OPTION, MIXELM=0) 
 =  4.099    (WHEN MIN. R.F.=1)  AT K=   2, I=   1, J=  43


 TOTAL NUMBER OF POINT SOURCES/SINKS PRESENT IN THE FLOW MODEL =    62

 MAXIMUM STEPSIZE WHICH MEETS STABILITY CRITERION OF THE SINK & SOURCE TERM
 =  164.8    (WHEN MIN. R.F.=1)  AT K=   2, I=   1, J= 120

 MAXIMUM STEPSIZE WHICH MEETS STABILITY CRITERION OF THE DISPERSION TERM
 =  20.29    (WHEN MIN. R.F.=1)  AT K=   1, I=   1, J=  31
     1 CALLS TO GCG PACKAGE FOR TRANSPORT TIME STEP   2 IN FLOW TIME STEP 653 STRESS PERIOD   1
     6 TOTAL ITERATIONS
 
 SOLVING FOR HEAD 
 FLOW MODEL IS TRANSIENT
 FLOW MODEL CONTAINS CONSTANT-HEAD CELLS


 MAXIMUM STEPSIZE DURING WHICH ANY PARTICLE CANNOT MOVE MORE THAN ONE CELL
 =  5.028    (WHEN MIN. R.F.=1)  AT K=   4, I=   1, J=  74

 MAXIMUM STEPSIZE WHICH MEETS STABILITY CRITERION OF THE ADVECTION TERM
 (FOR PURE FINITE-DIFFERENCE OPTION, MIXELM=0) 
 =  3.774    (WHEN MIN. R.F.=1)  AT K=   2, I=   1, J=  80


 TOTAL NUMBER OF POINT SOURCES/SINKS PRESENT IN THE FLOW MODEL =    62

 MAXIMUM STEPSIZE WHICH MEETS STABILITY CRITERION OF THE SINK & SOURCE TERM
 =  159.8    (WHEN MIN. R.F.=1)  AT K=   2, I=   1, J= 120

 MAXIMUM STEPSIZE WHICH MEETS STABILITY CRITERION OF THE DISPERSION TERM
 =  20.29    (WHEN MIN. R.F.=1)  AT K=   1, I=   1, J=  31
     1 CALLS TO GCG PACKAGE FOR TRANSPORT TIME STEP   3 IN FLOW TIME STEP 653 STRESS PERIOD   1
     6 TOTAL ITERATIONS
 
 SOLVING FOR HEAD 
 FLOW MODEL IS TRANSIENT
 FLOW MODEL CONTAINS CONSTANT-HEAD CELLS


 MAXIMUM STEPSIZE DURING WHICH ANY PARTICLE CANNOT MOVE MORE THAN ONE CELL
 =  5.010    (WHEN MIN. R.F.=1)  AT K=   4, I=   1, J=  74

 MAXIMUM STEPSIZE WHICH MEETS STABILITY CRITERION OF THE ADVECTION TERM
 (FOR PURE FINITE-DIFFERENCE OPTION, MIXELM=0) 
 =  3.609    (WHEN MIN. R.F.=1)  AT K=   2, I=   1, J=  80


 TOTAL NUMBER OF POINT SOURCES/SINKS PRESENT IN THE FLOW MODEL =    62

 MAXIMUM STEPSIZE WHICH MEETS STABILITY CRITERION OF THE SINK & SOURCE TERM
 =  158.1    (WHEN MIN. R.F.=1)  AT K=   2, I=   1, J= 120

 MAXIMUM STEPSIZE WHICH MEETS STABILITY CRITERION OF THE DISPERSION TERM
 =  20.29    (WHEN MIN. R.F.=1)  AT K=   1, I=   1, J=  31
     1 CALLS TO GCG PACKAGE FOR TRANSPORT TIME STEP   4 IN FLOW TIME STEP 653 STRESS PERIOD   1
     5 TOTAL ITERATIONS
  MAXIMUM CONCENTRATION CHANGES FOR EACH ITERATION:
  MAX. CHANGE LAYER,ROW,COL MAX. CHANGE LAYER,ROW,COL MAX. CHANGE LAYER,ROW,COL MAX. CHANGE LAYER,ROW,COL MAX. CHANGE LAYER,ROW,COL
 ------------------------------------------------------------------------------------------------------------------------------------
   0.1233E-01 (  2,  1, 81)  0.2330E-03 (  2,  1, 81)  0.6186E-05 (  3,  1, 79)  0.1973E-06 (  3,  1, 77)  0.4144E-08 (  4,  1, 77)


                                          ================================================
                                                         FROM TIME =   6530.0     TO    6540.0    

 
 SOLVING FOR HEAD 
 FLOW MODEL IS TRANSIENT
 FLOW MODEL CONTAINS CONSTANT-HEAD CELLS


 MAXIMUM STEPSIZE DURING WHICH ANY PARTICLE CANNOT MOVE MORE THAN ONE CELL
 =  5.017    (WHEN MIN. R.F.=1)  AT K=   4, I=   1, J=  74

 MAXIMUM STEPSIZE WHICH MEETS STABILITY CRITERION OF THE ADVECTION TERM
 (FOR PURE FINITE-DIFFERENCE OPTION, MIXELM=0) 
 =  3.608    (WHEN MIN. R.F.=1)  AT K=   2, I=   1, J=  80


 TOTAL NUMBER OF POINT SOURCES/SINKS PRESENT IN THE FLOW MODEL =    62

 MAXIMUM STEPSIZE WHICH MEETS STABILITY CRITERION OF THE SINK & SOURCE TERM
 =  165.9    (WHEN MIN. R.F.=1)  AT K=   2, I=   1, J= 120

 MAXIMUM STEPSIZE WHICH MEETS STABILITY CRITERION OF THE DISPERSION TERM
 =  20.29    (WHEN MIN. R.F.=1)  AT K=   1, I=   1, J=  31


     1 CALLS TO GCG PACKAGE FOR TRANSPORT TIME STEP   1 IN FLOW TIME STEP 654 STRESS PERIOD   1
     6 TOTAL ITERATIONS

 NO OUTPUT CONTROL FOR STRESS PERIOD    1   TIME STEP 654
 
 SOLVING FOR HEAD 
 FLOW MODEL IS TRANSIENT
 FLOW MODEL CONTAINS CONSTANT-HEAD CELLS


 MAXIMUM STEPSIZE DURING WHICH ANY PARTICLE CANNOT MOVE MORE THAN ONE CELL
 =  5.058    (WHEN MIN. R.F.=1)  AT K=   4, I=   1, J=  74

 MAXIMUM STEPSIZE WHICH MEETS STABILITY CRITERION OF THE ADVECTION TERM
 (FOR PURE FINITE-DIFFERENCE OPTION, MIXELM=0) 
 =  3.692    (WHEN MIN. R.F.=1)  AT K=   2, I=   1, J=  80


 TOTAL NUMBER OF POINT SOURCES/SINKS PRESENT IN THE FLOW MODEL =    62

 MAXIMUM STEPSIZE WHICH MEETS STABILITY CRITERION OF THE SINK & SOURCE TERM
 =  159.3    (WHEN MIN. R.F.=1)  AT K=   2, I=   1, J= 120

 MAXIMUM STEPSIZE WHICH MEETS STABILITY CRITERION OF THE DISPERSION TERM
 =  20.29    (WHEN MIN. R.F.=1)  AT K=   1, I=   1, J=  31
     1 CALLS TO GCG PACKAGE FOR TRANSPORT TIME STEP   2 IN FLOW TIME STEP 654 STRESS PERIOD   1
     6 TOTAL ITERATIONS
 
 SOLVING FOR HEAD 
 FLOW MODEL IS TRANSIENT
 FLOW MODEL CONTAINS CONSTANT-HEAD CELLS


 MAXIMUM STEPSIZE DURING WHICH ANY PARTICLE CANNOT MOVE MORE THAN ONE CELL
 =  5.113    (WHEN MIN. R.F.=1)  AT K=   5, I=   1, J=  74

 MAXIMUM STEPSIZE WHICH MEETS STABILITY CRITERION OF THE ADVECTION TERM
 (FOR PURE FINITE-DIFFERENCE OPTION, MIXELM=0) 
 =  4.004    (WHEN MIN. R.F.=1)  AT K=   2, I=   1, J=  80


 TOTAL NUMBER OF POINT SOURCES/SINKS PRESENT IN THE FLOW MODEL =    62

 MAXIMUM STEPSIZE WHICH MEETS STABILITY CRITERION OF THE SINK & SOURCE TERM
 =  158.7    (WHEN MIN. R.F.=1)  AT K=   2, I=   1, J= 120

 MAXIMUM STEPSIZE WHICH MEETS STABILITY CRITERION OF THE DISPERSION TERM
 =  20.29    (WHEN MIN. R.F.=1)  AT K=   1, I=   1, J=  31
     1 CALLS TO GCG PACKAGE FOR TRANSPORT TIME STEP   3 IN FLOW TIME STEP 654 STRESS PERIOD   1
     6 TOTAL ITERATIONS
 
 SOLVING FOR HEAD 
 FLOW MODEL IS TRANSIENT
 FLOW MODEL CONTAINS CONSTANT-HEAD CELLS


 MAXIMUM STEPSIZE DURING WHICH ANY PARTICLE CANNOT MOVE MORE THAN ONE CELL
 =  5.165    (WHEN MIN. R.F.=1)  AT K=   5, I=   1, J=  74

 MAXIMUM STEPSIZE WHICH MEETS STABILITY CRITERION OF THE ADVECTION TERM
 (FOR PURE FINITE-DIFFERENCE OPTION, MIXELM=0) 
 =  3.744    (WHEN MIN. R.F.=1)  AT K=   2, I=   1, J=  79


 TOTAL NUMBER OF POINT SOURCES/SINKS PRESENT IN THE FLOW MODEL =    62

 MAXIMUM STEPSIZE WHICH MEETS STABILITY CRITERION OF THE SINK & SOURCE TERM
 =  157.7    (WHEN MIN. R.F.=1)  AT K=   2, I=   1, J= 120

 MAXIMUM STEPSIZE WHICH MEETS STABILITY CRITERION OF THE DISPERSION TERM
 =  20.29    (WHEN MIN. R.F.=1)  AT K=   1, I=   1, J=  31
     1 CALLS TO GCG PACKAGE FOR TRANSPORT TIME STEP   4 IN FLOW TIME STEP 654 STRESS PERIOD   1
     5 TOTAL ITERATIONS
  MAXIMUM CONCENTRATION CHANGES FOR EACH ITERATION:
  MAX. CHANGE LAYER,ROW,COL MAX. CHANGE LAYER,ROW,COL MAX. CHANGE LAYER,ROW,COL MAX. CHANGE LAYER,ROW,COL MAX. CHANGE LAYER,ROW,COL
 ------------------------------------------------------------------------------------------------------------------------------------
   0.2028E-01 (  2,  1, 81)  0.6216E-03 (  2,  1, 79)  0.2192E-04 (  3,  1, 79)  0.1170E-05 (  3,  1, 76)  0.3479E-07 (  4,  1, 76)


                                          ================================================
                                                         FROM TIME =   6540.0     TO    6550.0    

 
 SOLVING FOR HEAD 
 FLOW MODEL IS TRANSIENT
 FLOW MODEL CONTAINS CONSTANT-HEAD CELLS


 MAXIMUM STEPSIZE DURING WHICH ANY PARTICLE CANNOT MOVE MORE THAN ONE CELL
 =  5.220    (WHEN MIN. R.F.=1)  AT K=   5, I=   1, J=  74

 MAXIMUM STEPSIZE WHICH MEETS STABILITY CRITERION OF THE ADVECTION TERM
 (FOR PURE FINITE-DIFFERENCE OPTION, MIXELM=0) 
 =  3.644    (WHEN MIN. R.F.=1)  AT K=   2, I=   1, J=  79


 TOTAL NUMBER OF POINT SOURCES/SINKS PRESENT IN THE FLOW MODEL =    62

 MAXIMUM STEPSIZE WHICH MEETS STABILITY CRITERION OF THE SINK & SOURCE TERM
 =  158.0    (WHEN MIN. R.F.=1)  AT K=   2, I=   1, J= 120

 MAXIMUM STEPSIZE WHICH MEETS STABILITY CRITERION OF THE DISPERSION TERM
 =  20.29    (WHEN MIN. R.F.=1)  AT K=   1, I=   1, J=  31


     1 CALLS TO GCG PACKAGE FOR TRANSPORT TIME STEP   1 IN FLOW TIME STEP 655 STRESS PERIOD   1
     6 TOTAL ITERATIONS

 NO OUTPUT CONTROL FOR STRESS PERIOD    1   TIME STEP 655
 
 SOLVING FOR HEAD 
 FLOW MODEL IS TRANSIENT
 FLOW MODEL CONTAINS CONSTANT-HEAD CELLS


 MAXIMUM STEPSIZE DURING WHICH ANY PARTICLE CANNOT MOVE MORE THAN ONE CELL
 =  5.326    (WHEN MIN. R.F.=1)  AT K=   5, I=   1, J=  74

 MAXIMUM STEPSIZE WHICH MEETS STABILITY CRITERION OF THE ADVECTION TERM
 (FOR PURE FINITE-DIFFERENCE OPTION, MIXELM=0) 
 =  3.590    (WHEN MIN. R.F.=1)  AT K=   2, I=   1, J=  79


 TOTAL NUMBER OF POINT SOURCES/SINKS PRESENT IN THE FLOW MODEL =    62

 MAXIMUM STEPSIZE WHICH MEETS STABILITY CRITERION OF THE SINK & SOURCE TERM
 =  154.8    (WHEN MIN. R.F.=1)  AT K=   2, I=   1, J= 120

 MAXIMUM STEPSIZE WHICH MEETS STABILITY CRITERION OF THE DISPERSION TERM
 =  20.29    (WHEN MIN. R.F.=1)  AT K=   1, I=   1, J=  31
     1 CALLS TO GCG PACKAGE FOR TRANSPORT TIME STEP   2 IN FLOW TIME STEP 655 STRESS PERIOD   1
     6 TOTAL ITERATIONS
 
 SOLVING FOR HEAD 
 FLOW MODEL IS TRANSIENT
 FLOW MODEL CONTAINS CONSTANT-HEAD CELLS


 MAXIMUM STEPSIZE DURING WHICH ANY PARTICLE CANNOT MOVE MORE THAN ONE CELL
 =  5.440    (WHEN MIN. R.F.=1)  AT K=   6, I=   1, J=  74

 MAXIMUM STEPSIZE WHICH MEETS STABILITY CRITERION OF THE ADVECTION TERM
 (FOR PURE FINITE-DIFFERENCE OPTION, MIXELM=0) 
 =  3.667    (WHEN MIN. R.F.=1)  AT K=   2, I=   1, J=  79


 TOTAL NUMBER OF POINT SOURCES/SINKS PRESENT IN THE FLOW MODEL =    62

 MAXIMUM STEPSIZE WHICH MEETS STABILITY CRITERION OF THE SINK & SOURCE TERM
 =  154.6    (WHEN MIN. R.F.=1)  AT K=   2, I=   1, J= 120

 MAXIMUM STEPSIZE WHICH MEETS STABILITY CRITERION OF THE DISPERSION TERM
 =  20.29    (WHEN MIN. R.F.=1)  AT K=   1, I=   1, J=  31
     1 CALLS TO GCG PACKAGE FOR TRANSPORT TIME STEP   3 IN FLOW TIME STEP 655 STRESS PERIOD   1
     6 TOTAL ITERATIONS
 
 SOLVING FOR HEAD 
 FLOW MODEL IS TRANSIENT
 FLOW MODEL CONTAINS CONSTANT-HEAD CELLS


 MAXIMUM STEPSIZE DURING WHICH ANY PARTICLE CANNOT MOVE MORE THAN ONE CELL
 =  5.537    (WHEN MIN. R.F.=1)  AT K=   6, I=   1, J=  74

 MAXIMUM STEPSIZE WHICH MEETS STABILITY CRITERION OF THE ADVECTION TERM
 (FOR PURE FINITE-DIFFERENCE OPTION, MIXELM=0) 
 =  3.922    (WHEN MIN. R.F.=1)  AT K=   2, I=   1, J=  79


 TOTAL NUMBER OF POINT SOURCES/SINKS PRESENT IN THE FLOW MODEL =    62

 MAXIMUM STEPSIZE WHICH MEETS STABILITY CRITERION OF THE SINK & SOURCE TERM
 =  154.7    (WHEN MIN. R.F.=1)  AT K=   2, I=   1, J= 120

 MAXIMUM STEPSIZE WHICH MEETS STABILITY CRITERION OF THE DISPERSION TERM
 =  20.29    (WHEN MIN. R.F.=1)  AT K=   1, I=   1, J=  31
     1 CALLS TO GCG PACKAGE FOR TRANSPORT TIME STEP   4 IN FLOW TIME STEP 655 STRESS PERIOD   1
     5 TOTAL ITERATIONS
  MAXIMUM CONCENTRATION CHANGES FOR EACH ITERATION:
  MAX. CHANGE LAYER,ROW,COL MAX. CHANGE LAYER,ROW,COL MAX. CHANGE LAYER,ROW,COL MAX. CHANGE LAYER,ROW,COL MAX. CHANGE LAYER,ROW,COL
 ------------------------------------------------------------------------------------------------------------------------------------
   0.2133E-01 (  2,  1, 80)  0.6312E-03 (  2,  1, 78)  0.2564E-04 (  3,  1, 78)  0.1034E-05 (  3,  1, 76)  0.2908E-07 (  4,  1, 79)


                                          ================================================
                                                         FROM TIME =   6550.0     TO    6560.0    

 
 SOLVING FOR HEAD 
 FLOW MODEL IS TRANSIENT
 FLOW MODEL CONTAINS CONSTANT-HEAD CELLS


 MAXIMUM STEPSIZE DURING WHICH ANY PARTICLE CANNOT MOVE MORE THAN ONE CELL
 =  5.618    (WHEN MIN. R.F.=1)  AT K=   6, I=   1, J=  74

 MAXIMUM STEPSIZE WHICH MEETS STABILITY CRITERION OF THE ADVECTION TERM
 (FOR PURE FINITE-DIFFERENCE OPTION, MIXELM=0) 
 =  4.069    (WHEN MIN. R.F.=1)  AT K=   2, I=   1, J=  78


 TOTAL NUMBER OF POINT SOURCES/SINKS PRESENT IN THE FLOW MODEL =    62

 MAXIMUM STEPSIZE WHICH MEETS STABILITY CRITERION OF THE SINK & SOURCE TERM
 =  154.5    (WHEN MIN. R.F.=1)  AT K=   2, I=   1, J= 120

 MAXIMUM STEPSIZE WHICH MEETS STABILITY CRITERION OF THE DISPERSION TERM
 =  20.29    (WHEN MIN. R.F.=1)  AT K=   1, I=   1, J=  31


     1 CALLS TO GCG PACKAGE FOR TRANSPORT TIME STEP   1 IN FLOW TIME STEP 656 STRESS PERIOD   1
     6 TOTAL ITERATIONS

 NO OUTPUT CONTROL FOR STRESS PERIOD    1   TIME STEP 656
 
 SOLVING FOR HEAD 
 FLOW MODEL IS TRANSIENT
 FLOW MODEL CONTAINS CONSTANT-HEAD CELLS


 MAXIMUM STEPSIZE DURING WHICH ANY PARTICLE CANNOT MOVE MORE THAN ONE CELL
 =  5.765    (WHEN MIN. R.F.=1)  AT K=   7, I=   1, J=  74

 MAXIMUM STEPSIZE WHICH MEETS STABILITY CRITERION OF THE ADVECTION TERM
 (FOR PURE FINITE-DIFFERENCE OPTION, MIXELM=0) 
 =  3.788    (WHEN MIN. R.F.=1)  AT K=   2, I=   1, J=  78


 TOTAL NUMBER OF POINT SOURCES/SINKS PRESENT IN THE FLOW MODEL =    62

 MAXIMUM STEPSIZE WHICH MEETS STABILITY CRITERION OF THE SINK & SOURCE TERM
 =  149.7    (WHEN MIN. R.F.=1)  AT K=   2, I=   1, J= 120

 MAXIMUM STEPSIZE WHICH MEETS STABILITY CRITERION OF THE DISPERSION TERM
 =  20.29    (WHEN MIN. R.F.=1)  AT K=   1, I=   1, J=  31
     1 CALLS TO GCG PACKAGE FOR TRANSPORT TIME STEP   2 IN FLOW TIME STEP 656 STRESS PERIOD   1
     6 TOTAL ITERATIONS
 
 SOLVING FOR HEAD 
 FLOW MODEL IS TRANSIENT
 FLOW MODEL CONTAINS CONSTANT-HEAD CELLS


 MAXIMUM STEPSIZE DURING WHICH ANY PARTICLE CANNOT MOVE MORE THAN ONE CELL
 =  5.889    (WHEN MIN. R.F.=1)  AT K=   7, I=   1, J=  74

 MAXIMUM STEPSIZE WHICH MEETS STABILITY CRITERION OF THE ADVECTION TERM
 (FOR PURE FINITE-DIFFERENCE OPTION, MIXELM=0) 
 =  3.675    (WHEN MIN. R.F.=1)  AT K=   2, I=   1, J=  78


 TOTAL NUMBER OF POINT SOURCES/SINKS PRESENT IN THE FLOW MODEL =    62

 MAXIMUM STEPSIZE WHICH MEETS STABILITY CRITERION OF THE SINK & SOURCE TERM
 =  148.0    (WHEN MIN. R.F.=1)  AT K=   2, I=   1, J= 120

 MAXIMUM STEPSIZE WHICH MEETS STABILITY CRITERION OF THE DISPERSION TERM
 =  20.29    (WHEN MIN. R.F.=1)  AT K=   1, I=   1, J=  31
     1 CALLS TO GCG PACKAGE FOR TRANSPORT TIME STEP   3 IN FLOW TIME STEP 656 STRESS PERIOD   1
     6 TOTAL ITERATIONS
 
 SOLVING FOR HEAD 
 FLOW MODEL IS TRANSIENT
 FLOW MODEL CONTAINS CONSTANT-HEAD CELLS


 MAXIMUM STEPSIZE DURING WHICH ANY PARTICLE CANNOT MOVE MORE THAN ONE CELL
 =  5.898    (WHEN MIN. R.F.=1)  AT K=  28, I=   1, J=  52

 MAXIMUM STEPSIZE WHICH MEETS STABILITY CRITERION OF THE ADVECTION TERM
 (FOR PURE FINITE-DIFFERENCE OPTION, MIXELM=0) 
 =  3.699    (WHEN MIN. R.F.=1)  AT K=   2, I=   1, J=  78


 TOTAL NUMBER OF POINT SOURCES/SINKS PRESENT IN THE FLOW MODEL =    62

 MAXIMUM STEPSIZE WHICH MEETS STABILITY CRITERION OF THE SINK & SOURCE TERM
 =  148.3    (WHEN MIN. R.F.=1)  AT K=   2, I=   1, J= 120

 MAXIMUM STEPSIZE WHICH MEETS STABILITY CRITERION OF THE DISPERSION TERM
 =  20.29    (WHEN MIN. R.F.=1)  AT K=   1, I=   1, J=  31
     1 CALLS TO GCG PACKAGE FOR TRANSPORT TIME STEP   4 IN FLOW TIME STEP 656 STRESS PERIOD   1
     5 TOTAL ITERATIONS
  MAXIMUM CONCENTRATION CHANGES FOR EACH ITERATION:
  MAX. CHANGE LAYER,ROW,COL MAX. CHANGE LAYER,ROW,COL MAX. CHANGE LAYER,ROW,COL MAX. CHANGE LAYER,ROW,COL MAX. CHANGE LAYER,ROW,COL
 ------------------------------------------------------------------------------------------------------------------------------------
   0.1412E-01 (  2,  1, 79)  0.2672E-03 (  2,  1, 79)  0.6256E-05 (  2,  1, 80)  0.1745E-06 (  3,  1, 80)  0.4287E-08 (  3,  1, 77)


                                          ================================================
                                                         FROM TIME =   6560.0     TO    6570.0    

 
 SOLVING FOR HEAD 
 FLOW MODEL IS TRANSIENT
 FLOW MODEL CONTAINS CONSTANT-HEAD CELLS


 MAXIMUM STEPSIZE DURING WHICH ANY PARTICLE CANNOT MOVE MORE THAN ONE CELL
 =  5.902    (WHEN MIN. R.F.=1)  AT K=  28, I=   1, J=  52

 MAXIMUM STEPSIZE WHICH MEETS STABILITY CRITERION OF THE ADVECTION TERM
 (FOR PURE FINITE-DIFFERENCE OPTION, MIXELM=0) 
 =  3.749    (WHEN MIN. R.F.=1)  AT K=   2, I=   1, J=  78


 TOTAL NUMBER OF POINT SOURCES/SINKS PRESENT IN THE FLOW MODEL =    62

 MAXIMUM STEPSIZE WHICH MEETS STABILITY CRITERION OF THE SINK & SOURCE TERM
 =  150.3    (WHEN MIN. R.F.=1)  AT K=   2, I=   1, J= 120

 MAXIMUM STEPSIZE WHICH MEETS STABILITY CRITERION OF THE DISPERSION TERM
 =  20.29    (WHEN MIN. R.F.=1)  AT K=   1, I=   1, J=  31


     1 CALLS TO GCG PACKAGE FOR TRANSPORT TIME STEP   1 IN FLOW TIME STEP 657 STRESS PERIOD   1
     6 TOTAL ITERATIONS

 NO OUTPUT CONTROL FOR STRESS PERIOD    1   TIME STEP 657
 
 SOLVING FOR HEAD 
 FLOW MODEL IS TRANSIENT
 FLOW MODEL CONTAINS CONSTANT-HEAD CELLS


 MAXIMUM STEPSIZE DURING WHICH ANY PARTICLE CANNOT MOVE MORE THAN ONE CELL
 =  5.902    (WHEN MIN. R.F.=1)  AT K=  28, I=   1, J=  52

 MAXIMUM STEPSIZE WHICH MEETS STABILITY CRITERION OF THE ADVECTION TERM
 (FOR PURE FINITE-DIFFERENCE OPTION, MIXELM=0) 
 =  3.961    (WHEN MIN. R.F.=1)  AT K=   2, I=   1, J=  78


 TOTAL NUMBER OF POINT SOURCES/SINKS PRESENT IN THE FLOW MODEL =    62

 MAXIMUM STEPSIZE WHICH MEETS STABILITY CRITERION OF THE SINK & SOURCE TERM
 =  144.4    (WHEN MIN. R.F.=1)  AT K=   2, I=   1, J= 120

 MAXIMUM STEPSIZE WHICH MEETS STABILITY CRITERION OF THE DISPERSION TERM
 =  20.29    (WHEN MIN. R.F.=1)  AT K=   1, I=   1, J=  31
     1 CALLS TO GCG PACKAGE FOR TRANSPORT TIME STEP   2 IN FLOW TIME STEP 657 STRESS PERIOD   1
     6 TOTAL ITERATIONS
 
 SOLVING FOR HEAD 
 FLOW MODEL IS TRANSIENT
 FLOW MODEL CONTAINS CONSTANT-HEAD CELLS


 MAXIMUM STEPSIZE DURING WHICH ANY PARTICLE CANNOT MOVE MORE THAN ONE CELL
 =  5.900    (WHEN MIN. R.F.=1)  AT K=  28, I=   1, J=  52

 MAXIMUM STEPSIZE WHICH MEETS STABILITY CRITERION OF THE ADVECTION TERM
 (FOR PURE FINITE-DIFFERENCE OPTION, MIXELM=0) 
 =  4.267    (WHEN MIN. R.F.=1)  AT K=   2, I=   1, J=  77


 TOTAL NUMBER OF POINT SOURCES/SINKS PRESENT IN THE FLOW MODEL =    62

 MAXIMUM STEPSIZE WHICH MEETS STABILITY CRITERION OF THE SINK & SOURCE TERM
 =  142.5    (WHEN MIN. R.F.=1)  AT K=   2, I=   1, J= 120

 MAXIMUM STEPSIZE WHICH MEETS STABILITY CRITERION OF THE DISPERSION TERM
 =  20.29    (WHEN MIN. R.F.=1)  AT K=   1, I=   1, J=  31
     1 CALLS TO GCG PACKAGE FOR TRANSPORT TIME STEP   3 IN FLOW TIME STEP 657 STRESS PERIOD   1
     6 TOTAL ITERATIONS
 
 SOLVING FOR HEAD 
 FLOW MODEL IS TRANSIENT
 FLOW MODEL CONTAINS CONSTANT-HEAD CELLS


 MAXIMUM STEPSIZE DURING WHICH ANY PARTICLE CANNOT MOVE MORE THAN ONE CELL
 =  5.852    (WHEN MIN. R.F.=1)  AT K=   4, I=   1, J=  47

 MAXIMUM STEPSIZE WHICH MEETS STABILITY CRITERION OF THE ADVECTION TERM
 (FOR PURE FINITE-DIFFERENCE OPTION, MIXELM=0) 
 =  3.983    (WHEN MIN. R.F.=1)  AT K=   2, I=   1, J=  77


 TOTAL NUMBER OF POINT SOURCES/SINKS PRESENT IN THE FLOW MODEL =    62

 MAXIMUM STEPSIZE WHICH MEETS STABILITY CRITERION OF THE SINK & SOURCE TERM
 =  141.1    (WHEN MIN. R.F.=1)  AT K=   2, I=   1, J= 120

 MAXIMUM STEPSIZE WHICH MEETS STABILITY CRITERION OF THE DISPERSION TERM
 =  20.29    (WHEN MIN. R.F.=1)  AT K=   1, I=   1, J=  31
     1 CALLS TO GCG PACKAGE FOR TRANSPORT TIME STEP   4 IN FLOW TIME STEP 657 STRESS PERIOD   1
     5 TOTAL ITERATIONS
  MAXIMUM CONCENTRATION CHANGES FOR EACH ITERATION:
  MAX. CHANGE LAYER,ROW,COL MAX. CHANGE LAYER,ROW,COL MAX. CHANGE LAYER,ROW,COL MAX. CHANGE LAYER,ROW,COL MAX. CHANGE LAYER,ROW,COL
 ------------------------------------------------------------------------------------------------------------------------------------
   0.1647E-01 (  2,  1, 38)  0.4454E-03 (  2,  1, 77)  0.1088E-04 (  3,  1, 77)  0.2994E-06 (  3,  1, 32)  0.9470E-08 (  3,  1, 88)


                                          ================================================
                                                         FROM TIME =   6570.0     TO    6580.0    

 
 SOLVING FOR HEAD 
 FLOW MODEL IS TRANSIENT
 FLOW MODEL CONTAINS CONSTANT-HEAD CELLS


 MAXIMUM STEPSIZE DURING WHICH ANY PARTICLE CANNOT MOVE MORE THAN ONE CELL
 =  5.685    (WHEN MIN. R.F.=1)  AT K=   4, I=   1, J=  47

 MAXIMUM STEPSIZE WHICH MEETS STABILITY CRITERION OF THE ADVECTION TERM
 (FOR PURE FINITE-DIFFERENCE OPTION, MIXELM=0) 
 =  3.919    (WHEN MIN. R.F.=1)  AT K=   2, I=   1, J=  77


 TOTAL NUMBER OF POINT SOURCES/SINKS PRESENT IN THE FLOW MODEL =    62

 MAXIMUM STEPSIZE WHICH MEETS STABILITY CRITERION OF THE SINK & SOURCE TERM
 =  143.1    (WHEN MIN. R.F.=1)  AT K=   2, I=   1, J= 120

 MAXIMUM STEPSIZE WHICH MEETS STABILITY CRITERION OF THE DISPERSION TERM
 =  20.29    (WHEN MIN. R.F.=1)  AT K=   1, I=   1, J=  31


     1 CALLS TO GCG PACKAGE FOR TRANSPORT TIME STEP   1 IN FLOW TIME STEP 658 STRESS PERIOD   1
     6 TOTAL ITERATIONS

 NO OUTPUT CONTROL FOR STRESS PERIOD    1   TIME STEP 658
 
 SOLVING FOR HEAD 
 FLOW MODEL IS TRANSIENT
 FLOW MODEL CONTAINS CONSTANT-HEAD CELLS


 MAXIMUM STEPSIZE DURING WHICH ANY PARTICLE CANNOT MOVE MORE THAN ONE CELL
 =  5.406    (WHEN MIN. R.F.=1)  AT K=   4, I=   1, J=  47

 MAXIMUM STEPSIZE WHICH MEETS STABILITY CRITERION OF THE ADVECTION TERM
 (FOR PURE FINITE-DIFFERENCE OPTION, MIXELM=0) 
 =  3.872    (WHEN MIN. R.F.=1)  AT K=   2, I=   1, J=  77


 TOTAL NUMBER OF POINT SOURCES/SINKS PRESENT IN THE FLOW MODEL =    62

 MAXIMUM STEPSIZE WHICH MEETS STABILITY CRITERION OF THE SINK & SOURCE TERM
 =  139.3    (WHEN MIN. R.F.=1)  AT K=   2, I=   1, J= 120

 MAXIMUM STEPSIZE WHICH MEETS STABILITY CRITERION OF THE DISPERSION TERM
 =  20.29    (WHEN MIN. R.F.=1)  AT K=   1, I=   1, J=  31
     1 CALLS TO GCG PACKAGE FOR TRANSPORT TIME STEP   2 IN FLOW TIME STEP 658 STRESS PERIOD   1
     6 TOTAL ITERATIONS
 
 SOLVING FOR HEAD 
 FLOW MODEL IS TRANSIENT
 FLOW MODEL CONTAINS CONSTANT-HEAD CELLS


 MAXIMUM STEPSIZE DURING WHICH ANY PARTICLE CANNOT MOVE MORE THAN ONE CELL
 =  5.210    (WHEN MIN. R.F.=1)  AT K=   4, I=   1, J=  47

 MAXIMUM STEPSIZE WHICH MEETS STABILITY CRITERION OF THE ADVECTION TERM
 (FOR PURE FINITE-DIFFERENCE OPTION, MIXELM=0) 
 =  3.935    (WHEN MIN. R.F.=1)  AT K=   2, I=   1, J=  77


 TOTAL NUMBER OF POINT SOURCES/SINKS PRESENT IN THE FLOW MODEL =    62

 MAXIMUM STEPSIZE WHICH MEETS STABILITY CRITERION OF THE SINK & SOURCE TERM
 =  137.7    (WHEN MIN. R.F.=1)  AT K=   2, I=   1, J= 120

 MAXIMUM STEPSIZE WHICH MEETS STABILITY CRITERION OF THE DISPERSION TERM
 =  20.29    (WHEN MIN. R.F.=1)  AT K=   1, I=   1, J=  31
     1 CALLS TO GCG PACKAGE FOR TRANSPORT TIME STEP   3 IN FLOW TIME STEP 658 STRESS PERIOD   1
     6 TOTAL ITERATIONS
 
 SOLVING FOR HEAD 
 FLOW MODEL IS TRANSIENT
 FLOW MODEL CONTAINS CONSTANT-HEAD CELLS


 MAXIMUM STEPSIZE DURING WHICH ANY PARTICLE CANNOT MOVE MORE THAN ONE CELL
 =  5.084    (WHEN MIN. R.F.=1)  AT K=   4, I=   1, J=  47

 MAXIMUM STEPSIZE WHICH MEETS STABILITY CRITERION OF THE ADVECTION TERM
 (FOR PURE FINITE-DIFFERENCE OPTION, MIXELM=0) 
 =  4.130    (WHEN MIN. R.F.=1)  AT K=   2, I=   1, J=  40


 TOTAL NUMBER OF POINT SOURCES/SINKS PRESENT IN THE FLOW MODEL =    62

 MAXIMUM STEPSIZE WHICH MEETS STABILITY CRITERION OF THE SINK & SOURCE TERM
 =  135.9    (WHEN MIN. R.F.=1)  AT K=   2, I=   1, J= 120

 MAXIMUM STEPSIZE WHICH MEETS STABILITY CRITERION OF THE DISPERSION TERM
 =  20.29    (WHEN MIN. R.F.=1)  AT K=   1, I=   1, J=  31
     1 CALLS TO GCG PACKAGE FOR TRANSPORT TIME STEP   4 IN FLOW TIME STEP 658 STRESS PERIOD   1
     5 TOTAL ITERATIONS
  MAXIMUM CONCENTRATION CHANGES FOR EACH ITERATION:
  MAX. CHANGE LAYER,ROW,COL MAX. CHANGE LAYER,ROW,COL MAX. CHANGE LAYER,ROW,COL MAX. CHANGE LAYER,ROW,COL MAX. CHANGE LAYER,ROW,COL
 ------------------------------------------------------------------------------------------------------------------------------------
   0.1465E-01 (  2,  1, 78)  0.2297E-03 (  2,  1, 75)  0.6456E-05 (  2,  1, 79)  0.1919E-06 (  3,  1, 79)  0.3485E-08 (  4,  1, 75)


                                          ================================================
                                                         FROM TIME =   6580.0     TO    6590.0    

 
 SOLVING FOR HEAD 
 FLOW MODEL IS TRANSIENT
 FLOW MODEL CONTAINS CONSTANT-HEAD CELLS


 MAXIMUM STEPSIZE DURING WHICH ANY PARTICLE CANNOT MOVE MORE THAN ONE CELL
 =  5.054    (WHEN MIN. R.F.=1)  AT K=   4, I=   1, J=  47

 MAXIMUM STEPSIZE WHICH MEETS STABILITY CRITERION OF THE ADVECTION TERM
 (FOR PURE FINITE-DIFFERENCE OPTION, MIXELM=0) 
 =  4.237    (WHEN MIN. R.F.=1)  AT K=   2, I=   1, J=  40


 TOTAL NUMBER OF POINT SOURCES/SINKS PRESENT IN THE FLOW MODEL =    62

 MAXIMUM STEPSIZE WHICH MEETS STABILITY CRITERION OF THE SINK & SOURCE TERM
 =  134.3    (WHEN MIN. R.F.=1)  AT K=   2, I=   1, J= 120

 MAXIMUM STEPSIZE WHICH MEETS STABILITY CRITERION OF THE DISPERSION TERM
 =  20.29    (WHEN MIN. R.F.=1)  AT K=   1, I=   1, J=  31


     1 CALLS TO GCG PACKAGE FOR TRANSPORT TIME STEP   1 IN FLOW TIME STEP 659 STRESS PERIOD   1
     6 TOTAL ITERATIONS

 NO OUTPUT CONTROL FOR STRESS PERIOD    1   TIME STEP 659
 
 SOLVING FOR HEAD 
 FLOW MODEL IS TRANSIENT
 FLOW MODEL CONTAINS CONSTANT-HEAD CELLS


 MAXIMUM STEPSIZE DURING WHICH ANY PARTICLE CANNOT MOVE MORE THAN ONE CELL
 =  5.017    (WHEN MIN. R.F.=1)  AT K=   4, I=   1, J=  47

 MAXIMUM STEPSIZE WHICH MEETS STABILITY CRITERION OF THE ADVECTION TERM
 (FOR PURE FINITE-DIFFERENCE OPTION, MIXELM=0) 
 =  4.037    (WHEN MIN. R.F.=1)  AT K=   2, I=   1, J=  41


 TOTAL NUMBER OF POINT SOURCES/SINKS PRESENT IN THE FLOW MODEL =    62

 MAXIMUM STEPSIZE WHICH MEETS STABILITY CRITERION OF THE SINK & SOURCE TERM
 =  128.3    (WHEN MIN. R.F.=1)  AT K=   2, I=   1, J= 120

 MAXIMUM STEPSIZE WHICH MEETS STABILITY CRITERION OF THE DISPERSION TERM
 =  20.29    (WHEN MIN. R.F.=1)  AT K=   1, I=   1, J=  31
     1 CALLS TO GCG PACKAGE FOR TRANSPORT TIME STEP   2 IN FLOW TIME STEP 659 STRESS PERIOD   1
     6 TOTAL ITERATIONS
 
 SOLVING FOR HEAD 
 FLOW MODEL IS TRANSIENT
 FLOW MODEL CONTAINS CONSTANT-HEAD CELLS


 MAXIMUM STEPSIZE DURING WHICH ANY PARTICLE CANNOT MOVE MORE THAN ONE CELL
 =  5.039    (WHEN MIN. R.F.=1)  AT K=   4, I=   1, J=  47

 MAXIMUM STEPSIZE WHICH MEETS STABILITY CRITERION OF THE ADVECTION TERM
 (FOR PURE FINITE-DIFFERENCE OPTION, MIXELM=0) 
 =  3.831    (WHEN MIN. R.F.=1)  AT K=   2, I=   1, J=  41


 TOTAL NUMBER OF POINT SOURCES/SINKS PRESENT IN THE FLOW MODEL =    62

 MAXIMUM STEPSIZE WHICH MEETS STABILITY CRITERION OF THE SINK & SOURCE TERM
 =  127.1    (WHEN MIN. R.F.=1)  AT K=   2, I=   1, J= 120

 MAXIMUM STEPSIZE WHICH MEETS STABILITY CRITERION OF THE DISPERSION TERM
 =  20.29    (WHEN MIN. R.F.=1)  AT K=   1, I=   1, J=  31
     1 CALLS TO GCG PACKAGE FOR TRANSPORT TIME STEP   3 IN FLOW TIME STEP 659 STRESS PERIOD   1
     6 TOTAL ITERATIONS
 
 SOLVING FOR HEAD 
 FLOW MODEL IS TRANSIENT
 FLOW MODEL CONTAINS CONSTANT-HEAD CELLS


 MAXIMUM STEPSIZE DURING WHICH ANY PARTICLE CANNOT MOVE MORE THAN ONE CELL
 =  5.108    (WHEN MIN. R.F.=1)  AT K=   4, I=   1, J=  47

 MAXIMUM STEPSIZE WHICH MEETS STABILITY CRITERION OF THE ADVECTION TERM
 (FOR PURE FINITE-DIFFERENCE OPTION, MIXELM=0) 
 =  3.810    (WHEN MIN. R.F.=1)  AT K=   2, I=   1, J=  41


 TOTAL NUMBER OF POINT SOURCES/SINKS PRESENT IN THE FLOW MODEL =    62

 MAXIMUM STEPSIZE WHICH MEETS STABILITY CRITERION OF THE SINK & SOURCE TERM
 =  128.8    (WHEN MIN. R.F.=1)  AT K=   2, I=   1, J= 120

 MAXIMUM STEPSIZE WHICH MEETS STABILITY CRITERION OF THE DISPERSION TERM
 =  20.29    (WHEN MIN. R.F.=1)  AT K=   1, I=   1, J=  31
     1 CALLS TO GCG PACKAGE FOR TRANSPORT TIME STEP   4 IN FLOW TIME STEP 659 STRESS PERIOD   1
     4 TOTAL ITERATIONS
  MAXIMUM CONCENTRATION CHANGES FOR EACH ITERATION:
  MAX. CHANGE LAYER,ROW,COL MAX. CHANGE LAYER,ROW,COL MAX. CHANGE LAYER,ROW,COL MAX. CHANGE LAYER,ROW,COL MAX. CHANGE LAYER,ROW,COL
 ------------------------------------------------------------------------------------------------------------------------------------
   0.7224E-02 (  2,  1, 31)  0.8153E-04 (  2,  1, 76)  0.1351E-05 (  3,  1, 42)  0.2164E-07 (  3,  1, 44)


                                          ================================================
                                                         FROM TIME =   6590.0     TO    6600.0    

 
 SOLVING FOR HEAD 
 FLOW MODEL IS TRANSIENT
 FLOW MODEL CONTAINS CONSTANT-HEAD CELLS


 MAXIMUM STEPSIZE DURING WHICH ANY PARTICLE CANNOT MOVE MORE THAN ONE CELL
 =  5.122    (WHEN MIN. R.F.=1)  AT K=   5, I=   1, J=  47

 MAXIMUM STEPSIZE WHICH MEETS STABILITY CRITERION OF THE ADVECTION TERM
 (FOR PURE FINITE-DIFFERENCE OPTION, MIXELM=0) 
 =  3.829    (WHEN MIN. R.F.=1)  AT K=   2, I=   1, J=  41


 TOTAL NUMBER OF POINT SOURCES/SINKS PRESENT IN THE FLOW MODEL =    62

 MAXIMUM STEPSIZE WHICH MEETS STABILITY CRITERION OF THE SINK & SOURCE TERM
 =  130.6    (WHEN MIN. R.F.=1)  AT K=   2, I=   1, J= 120

 MAXIMUM STEPSIZE WHICH MEETS STABILITY CRITERION OF THE DISPERSION TERM
 =  20.29    (WHEN MIN. R.F.=1)  AT K=   1, I=   1, J=  31


     1 CALLS TO GCG PACKAGE FOR TRANSPORT TIME STEP   1 IN FLOW TIME STEP 660 STRESS PERIOD   1
     6 TOTAL ITERATIONS

 NO OUTPUT CONTROL FOR STRESS PERIOD    1   TIME STEP 660
 
 SOLVING FOR HEAD 
 FLOW MODEL IS TRANSIENT
 FLOW MODEL CONTAINS CONSTANT-HEAD CELLS


 MAXIMUM STEPSIZE DURING WHICH ANY PARTICLE CANNOT MOVE MORE THAN ONE CELL
 =  5.180    (WHEN MIN. R.F.=1)  AT K=   5, I=   1, J=  47

 MAXIMUM STEPSIZE WHICH MEETS STABILITY CRITERION OF THE ADVECTION TERM
 (FOR PURE FINITE-DIFFERENCE OPTION, MIXELM=0) 
 =  4.014    (WHEN MIN. R.F.=1)  AT K=   2, I=   1, J=  41


 TOTAL NUMBER OF POINT SOURCES/SINKS PRESENT IN THE FLOW MODEL =    62

 MAXIMUM STEPSIZE WHICH MEETS STABILITY CRITERION OF THE SINK & SOURCE TERM
 =  126.2    (WHEN MIN. R.F.=1)  AT K=   2, I=   1, J= 120

 MAXIMUM STEPSIZE WHICH MEETS STABILITY CRITERION OF THE DISPERSION TERM
 =  20.29    (WHEN MIN. R.F.=1)  AT K=   1, I=   1, J=  31
     1 CALLS TO GCG PACKAGE FOR TRANSPORT TIME STEP   2 IN FLOW TIME STEP 660 STRESS PERIOD   1
     6 TOTAL ITERATIONS
 
 SOLVING FOR HEAD 
 FLOW MODEL IS TRANSIENT
 FLOW MODEL CONTAINS CONSTANT-HEAD CELLS


 MAXIMUM STEPSIZE DURING WHICH ANY PARTICLE CANNOT MOVE MORE THAN ONE CELL
 =  5.272    (WHEN MIN. R.F.=1)  AT K=   5, I=   1, J=  47

 MAXIMUM STEPSIZE WHICH MEETS STABILITY CRITERION OF THE ADVECTION TERM
 (FOR PURE FINITE-DIFFERENCE OPTION, MIXELM=0) 
 =  3.950    (WHEN MIN. R.F.=1)  AT K=   2, I=   1, J=  42


 TOTAL NUMBER OF POINT SOURCES/SINKS PRESENT IN THE FLOW MODEL =    62

 MAXIMUM STEPSIZE WHICH MEETS STABILITY CRITERION OF THE SINK & SOURCE TERM
 =  123.0    (WHEN MIN. R.F.=1)  AT K=   2, I=   1, J= 120

 MAXIMUM STEPSIZE WHICH MEETS STABILITY CRITERION OF THE DISPERSION TERM
 =  20.29    (WHEN MIN. R.F.=1)  AT K=   1, I=   1, J=  31
     1 CALLS TO GCG PACKAGE FOR TRANSPORT TIME STEP   3 IN FLOW TIME STEP 660 STRESS PERIOD   1
     6 TOTAL ITERATIONS
 
 SOLVING FOR HEAD 
 FLOW MODEL IS TRANSIENT
 FLOW MODEL CONTAINS CONSTANT-HEAD CELLS


 MAXIMUM STEPSIZE DURING WHICH ANY PARTICLE CANNOT MOVE MORE THAN ONE CELL
 =  5.405    (WHEN MIN. R.F.=1)  AT K=   5, I=   1, J=  47

 MAXIMUM STEPSIZE WHICH MEETS STABILITY CRITERION OF THE ADVECTION TERM
 (FOR PURE FINITE-DIFFERENCE OPTION, MIXELM=0) 
 =  3.766    (WHEN MIN. R.F.=1)  AT K=   2, I=   1, J=  42


 TOTAL NUMBER OF POINT SOURCES/SINKS PRESENT IN THE FLOW MODEL =    62

 MAXIMUM STEPSIZE WHICH MEETS STABILITY CRITERION OF THE SINK & SOURCE TERM
 =  121.9    (WHEN MIN. R.F.=1)  AT K=   2, I=   1, J= 120

 MAXIMUM STEPSIZE WHICH MEETS STABILITY CRITERION OF THE DISPERSION TERM
 =  20.29    (WHEN MIN. R.F.=1)  AT K=   1, I=   1, J=  31
     1 CALLS TO GCG PACKAGE FOR TRANSPORT TIME STEP   4 IN FLOW TIME STEP 660 STRESS PERIOD   1
     5 TOTAL ITERATIONS
  MAXIMUM CONCENTRATION CHANGES FOR EACH ITERATION:
  MAX. CHANGE LAYER,ROW,COL MAX. CHANGE LAYER,ROW,COL MAX. CHANGE LAYER,ROW,COL MAX. CHANGE LAYER,ROW,COL MAX. CHANGE LAYER,ROW,COL
 ------------------------------------------------------------------------------------------------------------------------------------
   0.1425E-01 (  2,  1, 77)  0.2472E-03 (  2,  1, 49)  0.7068E-05 (  2,  1, 45)  0.3251E-06 (  3,  1, 45)  0.7357E-08 (  4,  1, 45)


                                          ================================================
                                                         FROM TIME =   6600.0     TO    6610.0    

 
 SOLVING FOR HEAD 
 FLOW MODEL IS TRANSIENT
 FLOW MODEL CONTAINS CONSTANT-HEAD CELLS


 MAXIMUM STEPSIZE DURING WHICH ANY PARTICLE CANNOT MOVE MORE THAN ONE CELL
 =  5.478    (WHEN MIN. R.F.=1)  AT K=   5, I=   1, J=  47

 MAXIMUM STEPSIZE WHICH MEETS STABILITY CRITERION OF THE ADVECTION TERM
 (FOR PURE FINITE-DIFFERENCE OPTION, MIXELM=0) 
 =  3.744    (WHEN MIN. R.F.=1)  AT K=   2, I=   1, J=  42


 TOTAL NUMBER OF POINT SOURCES/SINKS PRESENT IN THE FLOW MODEL =    62

 MAXIMUM STEPSIZE WHICH MEETS STABILITY CRITERION OF THE SINK & SOURCE TERM
 =  121.9    (WHEN MIN. R.F.=1)  AT K=   2, I=   1, J= 120

 MAXIMUM STEPSIZE WHICH MEETS STABILITY CRITERION OF THE DISPERSION TERM
 =  20.29    (WHEN MIN. R.F.=1)  AT K=   1, I=   1, J=  31


     1 CALLS TO GCG PACKAGE FOR TRANSPORT TIME STEP   1 IN FLOW TIME STEP 661 STRESS PERIOD   1
     6 TOTAL ITERATIONS

 NO OUTPUT CONTROL FOR STRESS PERIOD    1   TIME STEP 661
 
 SOLVING FOR HEAD 
 FLOW MODEL IS TRANSIENT
 FLOW MODEL CONTAINS CONSTANT-HEAD CELLS


 MAXIMUM STEPSIZE DURING WHICH ANY PARTICLE CANNOT MOVE MORE THAN ONE CELL
 =  5.587    (WHEN MIN. R.F.=1)  AT K=   6, I=   1, J=  47

 MAXIMUM STEPSIZE WHICH MEETS STABILITY CRITERION OF THE ADVECTION TERM
 (FOR PURE FINITE-DIFFERENCE OPTION, MIXELM=0) 
 =  3.774    (WHEN MIN. R.F.=1)  AT K=   2, I=   1, J=  42


 TOTAL NUMBER OF POINT SOURCES/SINKS PRESENT IN THE FLOW MODEL =    62

 MAXIMUM STEPSIZE WHICH MEETS STABILITY CRITERION OF THE SINK & SOURCE TERM
 =  118.6    (WHEN MIN. R.F.=1)  AT K=   2, I=   1, J= 120

 MAXIMUM STEPSIZE WHICH MEETS STABILITY CRITERION OF THE DISPERSION TERM
 =  20.29    (WHEN MIN. R.F.=1)  AT K=   1, I=   1, J=  31
     1 CALLS TO GCG PACKAGE FOR TRANSPORT TIME STEP   2 IN FLOW TIME STEP 661 STRESS PERIOD   1
     6 TOTAL ITERATIONS
 
 SOLVING FOR HEAD 
 FLOW MODEL IS TRANSIENT
 FLOW MODEL CONTAINS CONSTANT-HEAD CELLS


 MAXIMUM STEPSIZE DURING WHICH ANY PARTICLE CANNOT MOVE MORE THAN ONE CELL
 =  5.719    (WHEN MIN. R.F.=1)  AT K=   6, I=   1, J=  47

 MAXIMUM STEPSIZE WHICH MEETS STABILITY CRITERION OF THE ADVECTION TERM
 (FOR PURE FINITE-DIFFERENCE OPTION, MIXELM=0) 
 =  3.929    (WHEN MIN. R.F.=1)  AT K=   2, I=   1, J=  42


 TOTAL NUMBER OF POINT SOURCES/SINKS PRESENT IN THE FLOW MODEL =    62

 MAXIMUM STEPSIZE WHICH MEETS STABILITY CRITERION OF THE SINK & SOURCE TERM
 =  117.5    (WHEN MIN. R.F.=1)  AT K=   2, I=   1, J= 120

 MAXIMUM STEPSIZE WHICH MEETS STABILITY CRITERION OF THE DISPERSION TERM
 =  20.29    (WHEN MIN. R.F.=1)  AT K=   1, I=   1, J=  31
     1 CALLS TO GCG PACKAGE FOR TRANSPORT TIME STEP   3 IN FLOW TIME STEP 661 STRESS PERIOD   1
     6 TOTAL ITERATIONS
 
 SOLVING FOR HEAD 
 FLOW MODEL IS TRANSIENT
 FLOW MODEL CONTAINS CONSTANT-HEAD CELLS


 MAXIMUM STEPSIZE DURING WHICH ANY PARTICLE CANNOT MOVE MORE THAN ONE CELL
 =  5.634    (WHEN MIN. R.F.=1)  AT K=   4, I=   1, J=  74

 MAXIMUM STEPSIZE WHICH MEETS STABILITY CRITERION OF THE ADVECTION TERM
 (FOR PURE FINITE-DIFFERENCE OPTION, MIXELM=0) 
 =  4.145    (WHEN MIN. R.F.=1)  AT K=   2, I=   1, J=  43


 TOTAL NUMBER OF POINT SOURCES/SINKS PRESENT IN THE FLOW MODEL =    62

 MAXIMUM STEPSIZE WHICH MEETS STABILITY CRITERION OF THE SINK & SOURCE TERM
 =  116.7    (WHEN MIN. R.F.=1)  AT K=   2, I=   1, J= 120

 MAXIMUM STEPSIZE WHICH MEETS STABILITY CRITERION OF THE DISPERSION TERM
 =  20.29    (WHEN MIN. R.F.=1)  AT K=   1, I=   1, J=  31
     1 CALLS TO GCG PACKAGE FOR TRANSPORT TIME STEP   4 IN FLOW TIME STEP 661 STRESS PERIOD   1
     5 TOTAL ITERATIONS
  MAXIMUM CONCENTRATION CHANGES FOR EACH ITERATION:
  MAX. CHANGE LAYER,ROW,COL MAX. CHANGE LAYER,ROW,COL MAX. CHANGE LAYER,ROW,COL MAX. CHANGE LAYER,ROW,COL MAX. CHANGE LAYER,ROW,COL
 ------------------------------------------------------------------------------------------------------------------------------------
   0.1792E-01 (  2,  1, 83)  0.3959E-03 ( 30,  1, 27)  0.1165E-04 (  2,  1, 77)  0.4982E-06 (  3,  1, 77)  0.1399E-07 (  4,  1, 74)


                                          ================================================
                                                         FROM TIME =   6610.0     TO    6620.0    

 
 SOLVING FOR HEAD 
 FLOW MODEL IS TRANSIENT
 FLOW MODEL CONTAINS CONSTANT-HEAD CELLS


 MAXIMUM STEPSIZE DURING WHICH ANY PARTICLE CANNOT MOVE MORE THAN ONE CELL
 =  5.507    (WHEN MIN. R.F.=1)  AT K=   4, I=   1, J=  74

 MAXIMUM STEPSIZE WHICH MEETS STABILITY CRITERION OF THE ADVECTION TERM
 (FOR PURE FINITE-DIFFERENCE OPTION, MIXELM=0) 
 =  3.999    (WHEN MIN. R.F.=1)  AT K=   2, I=   1, J=  43


 TOTAL NUMBER OF POINT SOURCES/SINKS PRESENT IN THE FLOW MODEL =    62

 MAXIMUM STEPSIZE WHICH MEETS STABILITY CRITERION OF THE SINK & SOURCE TERM
 =  117.4    (WHEN MIN. R.F.=1)  AT K=   2, I=   1, J= 120

 MAXIMUM STEPSIZE WHICH MEETS STABILITY CRITERION OF THE DISPERSION TERM
 =  20.29    (WHEN MIN. R.F.=1)  AT K=   1, I=   1, J=  31


     1 CALLS TO GCG PACKAGE FOR TRANSPORT TIME STEP   1 IN FLOW TIME STEP 662 STRESS PERIOD   1
     6 TOTAL ITERATIONS

 NO OUTPUT CONTROL FOR STRESS PERIOD    1   TIME STEP 662
 
 SOLVING FOR HEAD 
 FLOW MODEL IS TRANSIENT
 FLOW MODEL CONTAINS CONSTANT-HEAD CELLS


 MAXIMUM STEPSIZE DURING WHICH ANY PARTICLE CANNOT MOVE MORE THAN ONE CELL
 =  5.297    (WHEN MIN. R.F.=1)  AT K=   4, I=   1, J=  74

 MAXIMUM STEPSIZE WHICH MEETS STABILITY CRITERION OF THE ADVECTION TERM
 (FOR PURE FINITE-DIFFERENCE OPTION, MIXELM=0) 
 =  3.823    (WHEN MIN. R.F.=1)  AT K=   2, I=   1, J=  43


 TOTAL NUMBER OF POINT SOURCES/SINKS PRESENT IN THE FLOW MODEL =    62

 MAXIMUM STEPSIZE WHICH MEETS STABILITY CRITERION OF THE SINK & SOURCE TERM
 =  114.0    (WHEN MIN. R.F.=1)  AT K=   2, I=   1, J= 120

 MAXIMUM STEPSIZE WHICH MEETS STABILITY CRITERION OF THE DISPERSION TERM
 =  20.29    (WHEN MIN. R.F.=1)  AT K=   1, I=   1, J=  31
     1 CALLS TO GCG PACKAGE FOR TRANSPORT TIME STEP   2 IN FLOW TIME STEP 662 STRESS PERIOD   1
     6 TOTAL ITERATIONS
 
 SOLVING FOR HEAD 
 FLOW MODEL IS TRANSIENT
 FLOW MODEL CONTAINS CONSTANT-HEAD CELLS


 MAXIMUM STEPSIZE DURING WHICH ANY PARTICLE CANNOT MOVE MORE THAN ONE CELL
 =  5.149    (WHEN MIN. R.F.=1)  AT K=   4, I=   1, J=  74

 MAXIMUM STEPSIZE WHICH MEETS STABILITY CRITERION OF THE ADVECTION TERM
 (FOR PURE FINITE-DIFFERENCE OPTION, MIXELM=0) 
 =  3.809    (WHEN MIN. R.F.=1)  AT K=   2, I=   1, J=  43


 TOTAL NUMBER OF POINT SOURCES/SINKS PRESENT IN THE FLOW MODEL =    62

 MAXIMUM STEPSIZE WHICH MEETS STABILITY CRITERION OF THE SINK & SOURCE TERM
 =  114.2    (WHEN MIN. R.F.=1)  AT K=   2, I=   1, J= 120

 MAXIMUM STEPSIZE WHICH MEETS STABILITY CRITERION OF THE DISPERSION TERM
 =  20.29    (WHEN MIN. R.F.=1)  AT K=   1, I=   1, J=  31
     1 CALLS TO GCG PACKAGE FOR TRANSPORT TIME STEP   3 IN FLOW TIME STEP 662 STRESS PERIOD   1
     6 TOTAL ITERATIONS
 
 SOLVING FOR HEAD 
 FLOW MODEL IS TRANSIENT
 FLOW MODEL CONTAINS CONSTANT-HEAD CELLS


 MAXIMUM STEPSIZE DURING WHICH ANY PARTICLE CANNOT MOVE MORE THAN ONE CELL
 =  5.051    (WHEN MIN. R.F.=1)  AT K=   4, I=   1, J=  74

 MAXIMUM STEPSIZE WHICH MEETS STABILITY CRITERION OF THE ADVECTION TERM
 (FOR PURE FINITE-DIFFERENCE OPTION, MIXELM=0) 
 =  3.901    (WHEN MIN. R.F.=1)  AT K=   2, I=   1, J=  43


 TOTAL NUMBER OF POINT SOURCES/SINKS PRESENT IN THE FLOW MODEL =    62

 MAXIMUM STEPSIZE WHICH MEETS STABILITY CRITERION OF THE SINK & SOURCE TERM
 =  113.8    (WHEN MIN. R.F.=1)  AT K=   2, I=   1, J= 120

 MAXIMUM STEPSIZE WHICH MEETS STABILITY CRITERION OF THE DISPERSION TERM
 =  20.29    (WHEN MIN. R.F.=1)  AT K=   1, I=   1, J=  31
     1 CALLS TO GCG PACKAGE FOR TRANSPORT TIME STEP   4 IN FLOW TIME STEP 662 STRESS PERIOD   1
     4 TOTAL ITERATIONS
  MAXIMUM CONCENTRATION CHANGES FOR EACH ITERATION:
  MAX. CHANGE LAYER,ROW,COL MAX. CHANGE LAYER,ROW,COL MAX. CHANGE LAYER,ROW,COL MAX. CHANGE LAYER,ROW,COL MAX. CHANGE LAYER,ROW,COL
 ------------------------------------------------------------------------------------------------------------------------------------
   0.1264E-01 (  2,  1, 82)  0.1708E-03 (  3,  1, 77)  0.4551E-05 (  3,  1, 80)  0.9066E-07 (  4,  1, 80)


                                          ================================================
                                                         FROM TIME =   6620.0     TO    6630.0    

 
 SOLVING FOR HEAD 
 FLOW MODEL IS TRANSIENT
 FLOW MODEL CONTAINS CONSTANT-HEAD CELLS


 MAXIMUM STEPSIZE DURING WHICH ANY PARTICLE CANNOT MOVE MORE THAN ONE CELL
 =  5.028    (WHEN MIN. R.F.=1)  AT K=   4, I=   1, J=  74

 MAXIMUM STEPSIZE WHICH MEETS STABILITY CRITERION OF THE ADVECTION TERM
 (FOR PURE FINITE-DIFFERENCE OPTION, MIXELM=0) 
 =  3.972    (WHEN MIN. R.F.=1)  AT K=   2, I=   1, J=  43


 TOTAL NUMBER OF POINT SOURCES/SINKS PRESENT IN THE FLOW MODEL =    62

 MAXIMUM STEPSIZE WHICH MEETS STABILITY CRITERION OF THE SINK & SOURCE TERM
 =  113.3    (WHEN MIN. R.F.=1)  AT K=   2, I=   1, J= 120

 MAXIMUM STEPSIZE WHICH MEETS STABILITY CRITERION OF THE DISPERSION TERM
 =  20.29    (WHEN MIN. R.F.=1)  AT K=   1, I=   1, J=  31


     1 CALLS TO GCG PACKAGE FOR TRANSPORT TIME STEP   1 IN FLOW TIME STEP 663 STRESS PERIOD   1
     6 TOTAL ITERATIONS

 NO OUTPUT CONTROL FOR STRESS PERIOD    1   TIME STEP 663
 
 SOLVING FOR HEAD 
 FLOW MODEL IS TRANSIENT
 FLOW MODEL CONTAINS CONSTANT-HEAD CELLS


 MAXIMUM STEPSIZE DURING WHICH ANY PARTICLE CANNOT MOVE MORE THAN ONE CELL
 =  4.989    (WHEN MIN. R.F.=1)  AT K=   4, I=   1, J=  74

 MAXIMUM STEPSIZE WHICH MEETS STABILITY CRITERION OF THE ADVECTION TERM
 (FOR PURE FINITE-DIFFERENCE OPTION, MIXELM=0) 
 =  3.733    (WHEN MIN. R.F.=1)  AT K=   2, I=   1, J=  80


 TOTAL NUMBER OF POINT SOURCES/SINKS PRESENT IN THE FLOW MODEL =    62

 MAXIMUM STEPSIZE WHICH MEETS STABILITY CRITERION OF THE SINK & SOURCE TERM
 =  110.1    (WHEN MIN. R.F.=1)  AT K=   2, I=   1, J= 120

 MAXIMUM STEPSIZE WHICH MEETS STABILITY CRITERION OF THE DISPERSION TERM
 =  20.29    (WHEN MIN. R.F.=1)  AT K=   1, I=   1, J=  31
     1 CALLS TO GCG PACKAGE FOR TRANSPORT TIME STEP   2 IN FLOW TIME STEP 663 STRESS PERIOD   1
     6 TOTAL ITERATIONS
 
 SOLVING FOR HEAD 
 FLOW MODEL IS TRANSIENT
 FLOW MODEL CONTAINS CONSTANT-HEAD CELLS


 MAXIMUM STEPSIZE DURING WHICH ANY PARTICLE CANNOT MOVE MORE THAN ONE CELL
 =  4.990    (WHEN MIN. R.F.=1)  AT K=   4, I=   1, J=  74

 MAXIMUM STEPSIZE WHICH MEETS STABILITY CRITERION OF THE ADVECTION TERM
 (FOR PURE FINITE-DIFFERENCE OPTION, MIXELM=0) 
 =  3.636    (WHEN MIN. R.F.=1)  AT K=   2, I=   1, J=  80


 TOTAL NUMBER OF POINT SOURCES/SINKS PRESENT IN THE FLOW MODEL =    62

 MAXIMUM STEPSIZE WHICH MEETS STABILITY CRITERION OF THE SINK & SOURCE TERM
 =  110.0    (WHEN MIN. R.F.=1)  AT K=   2, I=   1, J= 120

 MAXIMUM STEPSIZE WHICH MEETS STABILITY CRITERION OF THE DISPERSION TERM
 =  20.29    (WHEN MIN. R.F.=1)  AT K=   1, I=   1, J=  31
     1 CALLS TO GCG PACKAGE FOR TRANSPORT TIME STEP   3 IN FLOW TIME STEP 663 STRESS PERIOD   1
     6 TOTAL ITERATIONS
 
 SOLVING FOR HEAD 
 FLOW MODEL IS TRANSIENT
 FLOW MODEL CONTAINS CONSTANT-HEAD CELLS


 MAXIMUM STEPSIZE DURING WHICH ANY PARTICLE CANNOT MOVE MORE THAN ONE CELL
 =  5.036    (WHEN MIN. R.F.=1)  AT K=   4, I=   1, J=  74

 MAXIMUM STEPSIZE WHICH MEETS STABILITY CRITERION OF THE ADVECTION TERM
 (FOR PURE FINITE-DIFFERENCE OPTION, MIXELM=0) 
 =  3.696    (WHEN MIN. R.F.=1)  AT K=   2, I=   1, J=  80


 TOTAL NUMBER OF POINT SOURCES/SINKS PRESENT IN THE FLOW MODEL =    62

 MAXIMUM STEPSIZE WHICH MEETS STABILITY CRITERION OF THE SINK & SOURCE TERM
 =  111.8    (WHEN MIN. R.F.=1)  AT K=   2, I=   1, J= 120

 MAXIMUM STEPSIZE WHICH MEETS STABILITY CRITERION OF THE DISPERSION TERM
 =  20.29    (WHEN MIN. R.F.=1)  AT K=   1, I=   1, J=  31
     1 CALLS TO GCG PACKAGE FOR TRANSPORT TIME STEP   4 IN FLOW TIME STEP 663 STRESS PERIOD   1
     5 TOTAL ITERATIONS
  MAXIMUM CONCENTRATION CHANGES FOR EACH ITERATION:
  MAX. CHANGE LAYER,ROW,COL MAX. CHANGE LAYER,ROW,COL MAX. CHANGE LAYER,ROW,COL MAX. CHANGE LAYER,ROW,COL MAX. CHANGE LAYER,ROW,COL
 ------------------------------------------------------------------------------------------------------------------------------------
   0.1606E-01 (  2,  1, 81)  0.2809E-03 (  2,  1, 46)  0.1114E-04 (  3,  1, 79)  0.2696E-06 (  3,  1, 82)  0.6807E-08 (  4,  1, 77)


                                          ================================================
                                                         FROM TIME =   6630.0     TO    6640.0    

 
 SOLVING FOR HEAD 
 FLOW MODEL IS TRANSIENT
 FLOW MODEL CONTAINS CONSTANT-HEAD CELLS


 MAXIMUM STEPSIZE DURING WHICH ANY PARTICLE CANNOT MOVE MORE THAN ONE CELL
 =  5.073    (WHEN MIN. R.F.=1)  AT K=   5, I=   1, J=  74

 MAXIMUM STEPSIZE WHICH MEETS STABILITY CRITERION OF THE ADVECTION TERM
 (FOR PURE FINITE-DIFFERENCE OPTION, MIXELM=0) 
 =  3.827    (WHEN MIN. R.F.=1)  AT K=   2, I=   1, J=  80


 TOTAL NUMBER OF POINT SOURCES/SINKS PRESENT IN THE FLOW MODEL =    62

 MAXIMUM STEPSIZE WHICH MEETS STABILITY CRITERION OF THE SINK & SOURCE TERM
 =  113.8    (WHEN MIN. R.F.=1)  AT K=   2, I=   1, J= 120

 MAXIMUM STEPSIZE WHICH MEETS STABILITY CRITERION OF THE DISPERSION TERM
 =  20.29    (WHEN MIN. R.F.=1)  AT K=   1, I=   1, J=  31


     1 CALLS TO GCG PACKAGE FOR TRANSPORT TIME STEP   1 IN FLOW TIME STEP 664 STRESS PERIOD   1
     6 TOTAL ITERATIONS

 NO OUTPUT CONTROL FOR STRESS PERIOD    1   TIME STEP 664
 
 SOLVING FOR HEAD 
 FLOW MODEL IS TRANSIENT
 FLOW MODEL CONTAINS CONSTANT-HEAD CELLS


 MAXIMUM STEPSIZE DURING WHICH ANY PARTICLE CANNOT MOVE MORE THAN ONE CELL
 =  5.116    (WHEN MIN. R.F.=1)  AT K=   5, I=   1, J=  74

 MAXIMUM STEPSIZE WHICH MEETS STABILITY CRITERION OF THE ADVECTION TERM
 (FOR PURE FINITE-DIFFERENCE OPTION, MIXELM=0) 
 =  3.846    (WHEN MIN. R.F.=1)  AT K=   2, I=   1, J=  79


 TOTAL NUMBER OF POINT SOURCES/SINKS PRESENT IN THE FLOW MODEL =    62

 MAXIMUM STEPSIZE WHICH MEETS STABILITY CRITERION OF THE SINK & SOURCE TERM
 =  111.2    (WHEN MIN. R.F.=1)  AT K=   2, I=   1, J= 120

 MAXIMUM STEPSIZE WHICH MEETS STABILITY CRITERION OF THE DISPERSION TERM
 =  20.29    (WHEN MIN. R.F.=1)  AT K=   1, I=   1, J=  31
     1 CALLS TO GCG PACKAGE FOR TRANSPORT TIME STEP   2 IN FLOW TIME STEP 664 STRESS PERIOD   1
     6 TOTAL ITERATIONS
 
 SOLVING FOR HEAD 
 FLOW MODEL IS TRANSIENT
 FLOW MODEL CONTAINS CONSTANT-HEAD CELLS


 MAXIMUM STEPSIZE DURING WHICH ANY PARTICLE CANNOT MOVE MORE THAN ONE CELL
 =  5.193    (WHEN MIN. R.F.=1)  AT K=   5, I=   1, J=  74

 MAXIMUM STEPSIZE WHICH MEETS STABILITY CRITERION OF THE ADVECTION TERM
 (FOR PURE FINITE-DIFFERENCE OPTION, MIXELM=0) 
 =  3.631    (WHEN MIN. R.F.=1)  AT K=   2, I=   1, J=  79


 TOTAL NUMBER OF POINT SOURCES/SINKS PRESENT IN THE FLOW MODEL =    62

 MAXIMUM STEPSIZE WHICH MEETS STABILITY CRITERION OF THE SINK & SOURCE TERM
 =  110.8    (WHEN MIN. R.F.=1)  AT K=   2, I=   1, J= 120

 MAXIMUM STEPSIZE WHICH MEETS STABILITY CRITERION OF THE DISPERSION TERM
 =  20.29    (WHEN MIN. R.F.=1)  AT K=   1, I=   1, J=  31
     1 CALLS TO GCG PACKAGE FOR TRANSPORT TIME STEP   3 IN FLOW TIME STEP 664 STRESS PERIOD   1
     6 TOTAL ITERATIONS
 
 SOLVING FOR HEAD 
 FLOW MODEL IS TRANSIENT
 FLOW MODEL CONTAINS CONSTANT-HEAD CELLS


 MAXIMUM STEPSIZE DURING WHICH ANY PARTICLE CANNOT MOVE MORE THAN ONE CELL
 =  5.301    (WHEN MIN. R.F.=1)  AT K=   5, I=   1, J=  74

 MAXIMUM STEPSIZE WHICH MEETS STABILITY CRITERION OF THE ADVECTION TERM
 (FOR PURE FINITE-DIFFERENCE OPTION, MIXELM=0) 
 =  3.571    (WHEN MIN. R.F.=1)  AT K=   2, I=   1, J=  79


 TOTAL NUMBER OF POINT SOURCES/SINKS PRESENT IN THE FLOW MODEL =    62

 MAXIMUM STEPSIZE WHICH MEETS STABILITY CRITERION OF THE SINK & SOURCE TERM
 =  111.0    (WHEN MIN. R.F.=1)  AT K=   2, I=   1, J= 120

 MAXIMUM STEPSIZE WHICH MEETS STABILITY CRITERION OF THE DISPERSION TERM
 =  20.29    (WHEN MIN. R.F.=1)  AT K=   1, I=   1, J=  31
     1 CALLS TO GCG PACKAGE FOR TRANSPORT TIME STEP   4 IN FLOW TIME STEP 664 STRESS PERIOD   1
     5 TOTAL ITERATIONS
  MAXIMUM CONCENTRATION CHANGES FOR EACH ITERATION:
  MAX. CHANGE LAYER,ROW,COL MAX. CHANGE LAYER,ROW,COL MAX. CHANGE LAYER,ROW,COL MAX. CHANGE LAYER,ROW,COL MAX. CHANGE LAYER,ROW,COL
 ------------------------------------------------------------------------------------------------------------------------------------
   0.1758E-01 (  2,  1, 80)  0.4041E-03 (  2,  1, 80)  0.1274E-04 (  3,  1, 78)  0.6504E-06 (  3,  1, 76)  0.1645E-07 (  4,  1, 76)


                                          ================================================
                                                         FROM TIME =   6640.0     TO    6650.0    

 
 SOLVING FOR HEAD 
 FLOW MODEL IS TRANSIENT
 FLOW MODEL CONTAINS CONSTANT-HEAD CELLS


 MAXIMUM STEPSIZE DURING WHICH ANY PARTICLE CANNOT MOVE MORE THAN ONE CELL
 =  5.375    (WHEN MIN. R.F.=1)  AT K=   5, I=   1, J=  74

 MAXIMUM STEPSIZE WHICH MEETS STABILITY CRITERION OF THE ADVECTION TERM
 (FOR PURE FINITE-DIFFERENCE OPTION, MIXELM=0) 
 =  3.604    (WHEN MIN. R.F.=1)  AT K=   2, I=   1, J=  79


 TOTAL NUMBER OF POINT SOURCES/SINKS PRESENT IN THE FLOW MODEL =    62

 MAXIMUM STEPSIZE WHICH MEETS STABILITY CRITERION OF THE SINK & SOURCE TERM
 =  111.0    (WHEN MIN. R.F.=1)  AT K=   2, I=   1, J= 120

 MAXIMUM STEPSIZE WHICH MEETS STABILITY CRITERION OF THE DISPERSION TERM
 =  20.29    (WHEN MIN. R.F.=1)  AT K=   1, I=   1, J=  31


     1 CALLS TO GCG PACKAGE FOR TRANSPORT TIME STEP   1 IN FLOW TIME STEP 665 STRESS PERIOD   1
     6 TOTAL ITERATIONS

 NO OUTPUT CONTROL FOR STRESS PERIOD    1   TIME STEP 665
 
 SOLVING FOR HEAD 
 FLOW MODEL IS TRANSIENT
 FLOW MODEL CONTAINS CONSTANT-HEAD CELLS


 MAXIMUM STEPSIZE DURING WHICH ANY PARTICLE CANNOT MOVE MORE THAN ONE CELL
 =  5.478    (WHEN MIN. R.F.=1)  AT K=   6, I=   1, J=  74

 MAXIMUM STEPSIZE WHICH MEETS STABILITY CRITERION OF THE ADVECTION TERM
 (FOR PURE FINITE-DIFFERENCE OPTION, MIXELM=0) 
 =  3.755    (WHEN MIN. R.F.=1)  AT K=   2, I=   1, J=  79


 TOTAL NUMBER OF POINT SOURCES/SINKS PRESENT IN THE FLOW MODEL =    62

 MAXIMUM STEPSIZE WHICH MEETS STABILITY CRITERION OF THE SINK & SOURCE TERM
 =  109.8    (WHEN MIN. R.F.=1)  AT K=   2, I=   1, J= 120

 MAXIMUM STEPSIZE WHICH MEETS STABILITY CRITERION OF THE DISPERSION TERM
 =  20.29    (WHEN MIN. R.F.=1)  AT K=   1, I=   1, J=  31
     1 CALLS TO GCG PACKAGE FOR TRANSPORT TIME STEP   2 IN FLOW TIME STEP 665 STRESS PERIOD   1
     6 TOTAL ITERATIONS
 
 SOLVING FOR HEAD 
 FLOW MODEL IS TRANSIENT
 FLOW MODEL CONTAINS CONSTANT-HEAD CELLS


 MAXIMUM STEPSIZE DURING WHICH ANY PARTICLE CANNOT MOVE MORE THAN ONE CELL
 =  5.594    (WHEN MIN. R.F.=1)  AT K=   6, I=   1, J=  74

 MAXIMUM STEPSIZE WHICH MEETS STABILITY CRITERION OF THE ADVECTION TERM
 (FOR PURE FINITE-DIFFERENCE OPTION, MIXELM=0) 
 =  4.076    (WHEN MIN. R.F.=1)  AT K=   2, I=   1, J=  78


 TOTAL NUMBER OF POINT SOURCES/SINKS PRESENT IN THE FLOW MODEL =    62

 MAXIMUM STEPSIZE WHICH MEETS STABILITY CRITERION OF THE SINK & SOURCE TERM
 =  110.3    (WHEN MIN. R.F.=1)  AT K=   2, I=   1, J= 120

 MAXIMUM STEPSIZE WHICH MEETS STABILITY CRITERION OF THE DISPERSION TERM
 =  20.29    (WHEN MIN. R.F.=1)  AT K=   1, I=   1, J=  31
     1 CALLS TO GCG PACKAGE FOR TRANSPORT TIME STEP   3 IN FLOW TIME STEP 665 STRESS PERIOD   1
     6 TOTAL ITERATIONS
 
 SOLVING FOR HEAD 
 FLOW MODEL IS TRANSIENT
 FLOW MODEL CONTAINS CONSTANT-HEAD CELLS


 MAXIMUM STEPSIZE DURING WHICH ANY PARTICLE CANNOT MOVE MORE THAN ONE CELL
 =  5.746    (WHEN MIN. R.F.=1)  AT K=   6, I=   1, J=  74

 MAXIMUM STEPSIZE WHICH MEETS STABILITY CRITERION OF THE ADVECTION TERM
 (FOR PURE FINITE-DIFFERENCE OPTION, MIXELM=0) 
 =  3.793    (WHEN MIN. R.F.=1)  AT K=   2, I=   1, J=  78


 TOTAL NUMBER OF POINT SOURCES/SINKS PRESENT IN THE FLOW MODEL =    62

 MAXIMUM STEPSIZE WHICH MEETS STABILITY CRITERION OF THE SINK & SOURCE TERM
 =  110.8    (WHEN MIN. R.F.=1)  AT K=   2, I=   1, J= 120

 MAXIMUM STEPSIZE WHICH MEETS STABILITY CRITERION OF THE DISPERSION TERM
 =  20.29    (WHEN MIN. R.F.=1)  AT K=   1, I=   1, J=  31
     1 CALLS TO GCG PACKAGE FOR TRANSPORT TIME STEP   4 IN FLOW TIME STEP 665 STRESS PERIOD   1
     5 TOTAL ITERATIONS
  MAXIMUM CONCENTRATION CHANGES FOR EACH ITERATION:
  MAX. CHANGE LAYER,ROW,COL MAX. CHANGE LAYER,ROW,COL MAX. CHANGE LAYER,ROW,COL MAX. CHANGE LAYER,ROW,COL MAX. CHANGE LAYER,ROW,COL
 ------------------------------------------------------------------------------------------------------------------------------------
   0.1899E-01 (  2,  1, 80)  0.6140E-03 (  2,  1, 78)  0.1781E-04 (  3,  1, 74)  0.6688E-06 (  3,  1, 43)  0.2678E-07 (  3,  1, 77)


                                          ================================================
                                                         FROM TIME =   6650.0     TO    6660.0    

 
 SOLVING FOR HEAD 
 FLOW MODEL IS TRANSIENT
 FLOW MODEL CONTAINS CONSTANT-HEAD CELLS


 MAXIMUM STEPSIZE DURING WHICH ANY PARTICLE CANNOT MOVE MORE THAN ONE CELL
 =  5.831    (WHEN MIN. R.F.=1)  AT K=   7, I=   1, J=  74

 MAXIMUM STEPSIZE WHICH MEETS STABILITY CRITERION OF THE ADVECTION TERM
 (FOR PURE FINITE-DIFFERENCE OPTION, MIXELM=0) 
 =  3.707    (WHEN MIN. R.F.=1)  AT K=   2, I=   1, J=  78


 TOTAL NUMBER OF POINT SOURCES/SINKS PRESENT IN THE FLOW MODEL =    62

 MAXIMUM STEPSIZE WHICH MEETS STABILITY CRITERION OF THE SINK & SOURCE TERM
 =  110.6    (WHEN MIN. R.F.=1)  AT K=   2, I=   1, J= 120

 MAXIMUM STEPSIZE WHICH MEETS STABILITY CRITERION OF THE DISPERSION TERM
 =  20.29    (WHEN MIN. R.F.=1)  AT K=   1, I=   1, J=  31


     1 CALLS TO GCG PACKAGE FOR TRANSPORT TIME STEP   1 IN FLOW TIME STEP 666 STRESS PERIOD   1
     6 TOTAL ITERATIONS

 NO OUTPUT CONTROL FOR STRESS PERIOD    1   TIME STEP 666
 
 SOLVING FOR HEAD 
 FLOW MODEL IS TRANSIENT
 FLOW MODEL CONTAINS CONSTANT-HEAD CELLS


 MAXIMUM STEPSIZE DURING WHICH ANY PARTICLE CANNOT MOVE MORE THAN ONE CELL
 =  5.858    (WHEN MIN. R.F.=1)  AT K=  28, I=   1, J=  52

 MAXIMUM STEPSIZE WHICH MEETS STABILITY CRITERION OF THE ADVECTION TERM
 (FOR PURE FINITE-DIFFERENCE OPTION, MIXELM=0) 
 =  3.669    (WHEN MIN. R.F.=1)  AT K=   2, I=   1, J=  78


 TOTAL NUMBER OF POINT SOURCES/SINKS PRESENT IN THE FLOW MODEL =    62

 MAXIMUM STEPSIZE WHICH MEETS STABILITY CRITERION OF THE SINK & SOURCE TERM
 =  108.6    (WHEN MIN. R.F.=1)  AT K=   2, I=   1, J= 120

 MAXIMUM STEPSIZE WHICH MEETS STABILITY CRITERION OF THE DISPERSION TERM
 =  20.29    (WHEN MIN. R.F.=1)  AT K=   1, I=   1, J=  31
     1 CALLS TO GCG PACKAGE FOR TRANSPORT TIME STEP   2 IN FLOW TIME STEP 666 STRESS PERIOD   1
     6 TOTAL ITERATIONS
 
 SOLVING FOR HEAD 
 FLOW MODEL IS TRANSIENT
 FLOW MODEL CONTAINS CONSTANT-HEAD CELLS


 MAXIMUM STEPSIZE DURING WHICH ANY PARTICLE CANNOT MOVE MORE THAN ONE CELL
 =  5.853    (WHEN MIN. R.F.=1)  AT K=  28, I=   1, J=  52

 MAXIMUM STEPSIZE WHICH MEETS STABILITY CRITERION OF THE ADVECTION TERM
 (FOR PURE FINITE-DIFFERENCE OPTION, MIXELM=0) 
 =  3.746    (WHEN MIN. R.F.=1)  AT K=   2, I=   1, J=  78


 TOTAL NUMBER OF POINT SOURCES/SINKS PRESENT IN THE FLOW MODEL =    62

 MAXIMUM STEPSIZE WHICH MEETS STABILITY CRITERION OF THE SINK & SOURCE TERM
 =  108.7    (WHEN MIN. R.F.=1)  AT K=   2, I=   1, J= 120

 MAXIMUM STEPSIZE WHICH MEETS STABILITY CRITERION OF THE DISPERSION TERM
 =  20.29    (WHEN MIN. R.F.=1)  AT K=   1, I=   1, J=  31
     1 CALLS TO GCG PACKAGE FOR TRANSPORT TIME STEP   3 IN FLOW TIME STEP 666 STRESS PERIOD   1
     6 TOTAL ITERATIONS
 
 SOLVING FOR HEAD 
 FLOW MODEL IS TRANSIENT
 FLOW MODEL CONTAINS CONSTANT-HEAD CELLS


 MAXIMUM STEPSIZE DURING WHICH ANY PARTICLE CANNOT MOVE MORE THAN ONE CELL
 =  5.848    (WHEN MIN. R.F.=1)  AT K=  28, I=   1, J=  52

 MAXIMUM STEPSIZE WHICH MEETS STABILITY CRITERION OF THE ADVECTION TERM
 (FOR PURE FINITE-DIFFERENCE OPTION, MIXELM=0) 
 =  3.976    (WHEN MIN. R.F.=1)  AT K=   2, I=   1, J=  78


 TOTAL NUMBER OF POINT SOURCES/SINKS PRESENT IN THE FLOW MODEL =    62

 MAXIMUM STEPSIZE WHICH MEETS STABILITY CRITERION OF THE SINK & SOURCE TERM
 =  108.7    (WHEN MIN. R.F.=1)  AT K=   2, I=   1, J= 120

 MAXIMUM STEPSIZE WHICH MEETS STABILITY CRITERION OF THE DISPERSION TERM
 =  20.29    (WHEN MIN. R.F.=1)  AT K=   1, I=   1, J=  31
     1 CALLS TO GCG PACKAGE FOR TRANSPORT TIME STEP   4 IN FLOW TIME STEP 666 STRESS PERIOD   1
     5 TOTAL ITERATIONS
  MAXIMUM CONCENTRATION CHANGES FOR EACH ITERATION:
  MAX. CHANGE LAYER,ROW,COL MAX. CHANGE LAYER,ROW,COL MAX. CHANGE LAYER,ROW,COL MAX. CHANGE LAYER,ROW,COL MAX. CHANGE LAYER,ROW,COL
 ------------------------------------------------------------------------------------------------------------------------------------
   0.2025E-01 (  2,  1, 79)  0.5336E-03 (  2,  1, 77)  0.1745E-04 (  3,  1, 77)  0.5937E-06 (  3,  1, 80)  0.1954E-07 (  5,  1, 80)


                                          ================================================
                                                         FROM TIME =   6660.0     TO    6670.0    

 
 SOLVING FOR HEAD 
 FLOW MODEL IS TRANSIENT
 FLOW MODEL CONTAINS CONSTANT-HEAD CELLS


 MAXIMUM STEPSIZE DURING WHICH ANY PARTICLE CANNOT MOVE MORE THAN ONE CELL
 =  5.850    (WHEN MIN. R.F.=1)  AT K=  28, I=   1, J=  52

 MAXIMUM STEPSIZE WHICH MEETS STABILITY CRITERION OF THE ADVECTION TERM
 (FOR PURE FINITE-DIFFERENCE OPTION, MIXELM=0) 
 =  4.201    (WHEN MIN. R.F.=1)  AT K=   2, I=   1, J=  78


 TOTAL NUMBER OF POINT SOURCES/SINKS PRESENT IN THE FLOW MODEL =    62

 MAXIMUM STEPSIZE WHICH MEETS STABILITY CRITERION OF THE SINK & SOURCE TERM
 =  108.6    (WHEN MIN. R.F.=1)  AT K=   2, I=   1, J= 120

 MAXIMUM STEPSIZE WHICH MEETS STABILITY CRITERION OF THE DISPERSION TERM
 =  20.29    (WHEN MIN. R.F.=1)  AT K=   1, I=   1, J=  31


     1 CALLS TO GCG PACKAGE FOR TRANSPORT TIME STEP   1 IN FLOW TIME STEP 667 STRESS PERIOD   1
     6 TOTAL ITERATIONS

 NO OUTPUT CONTROL FOR STRESS PERIOD    1   TIME STEP 667
 
 SOLVING FOR HEAD 
 FLOW MODEL IS TRANSIENT
 FLOW MODEL CONTAINS CONSTANT-HEAD CELLS


 MAXIMUM STEPSIZE DURING WHICH ANY PARTICLE CANNOT MOVE MORE THAN ONE CELL
 =  5.845    (WHEN MIN. R.F.=1)  AT K=  28, I=   1, J=  52

 MAXIMUM STEPSIZE WHICH MEETS STABILITY CRITERION OF THE ADVECTION TERM
 (FOR PURE FINITE-DIFFERENCE OPTION, MIXELM=0) 
 =  4.053    (WHEN MIN. R.F.=1)  AT K=   2, I=   1, J=  77


 TOTAL NUMBER OF POINT SOURCES/SINKS PRESENT IN THE FLOW MODEL =    62

 MAXIMUM STEPSIZE WHICH MEETS STABILITY CRITERION OF THE SINK & SOURCE TERM
 =  107.5    (WHEN MIN. R.F.=1)  AT K=   2, I=   1, J= 120

 MAXIMUM STEPSIZE WHICH MEETS STABILITY CRITERION OF THE DISPERSION TERM
 =  20.29    (WHEN MIN. R.F.=1)  AT K=   1, I=   1, J=  31
     1 CALLS TO GCG PACKAGE FOR TRANSPORT TIME STEP   2 IN FLOW TIME STEP 667 STRESS PERIOD   1
     6 TOTAL ITERATIONS
 
 SOLVING FOR HEAD 
 FLOW MODEL IS TRANSIENT
 FLOW MODEL CONTAINS CONSTANT-HEAD CELLS


 MAXIMUM STEPSIZE DURING WHICH ANY PARTICLE CANNOT MOVE MORE THAN ONE CELL
 =  5.838    (WHEN MIN. R.F.=1)  AT K=  28, I=   1, J=  52

 MAXIMUM STEPSIZE WHICH MEETS STABILITY CRITERION OF THE ADVECTION TERM
 (FOR PURE FINITE-DIFFERENCE OPTION, MIXELM=0) 
 =  3.881    (WHEN MIN. R.F.=1)  AT K=   2, I=   1, J=  77


 TOTAL NUMBER OF POINT SOURCES/SINKS PRESENT IN THE FLOW MODEL =    62

 MAXIMUM STEPSIZE WHICH MEETS STABILITY CRITERION OF THE SINK & SOURCE TERM
 =  107.7    (WHEN MIN. R.F.=1)  AT K=   2, I=   1, J= 120

 MAXIMUM STEPSIZE WHICH MEETS STABILITY CRITERION OF THE DISPERSION TERM
 =  20.29    (WHEN MIN. R.F.=1)  AT K=   1, I=   1, J=  31
     1 CALLS TO GCG PACKAGE FOR TRANSPORT TIME STEP   3 IN FLOW TIME STEP 667 STRESS PERIOD   1
     6 TOTAL ITERATIONS
 
 SOLVING FOR HEAD 
 FLOW MODEL IS TRANSIENT
 FLOW MODEL CONTAINS CONSTANT-HEAD CELLS


 MAXIMUM STEPSIZE DURING WHICH ANY PARTICLE CANNOT MOVE MORE THAN ONE CELL
 =  5.568    (WHEN MIN. R.F.=1)  AT K=   4, I=   1, J=  47

 MAXIMUM STEPSIZE WHICH MEETS STABILITY CRITERION OF THE ADVECTION TERM
 (FOR PURE FINITE-DIFFERENCE OPTION, MIXELM=0) 
 =  3.862    (WHEN MIN. R.F.=1)  AT K=   2, I=   1, J=  77


 TOTAL NUMBER OF POINT SOURCES/SINKS PRESENT IN THE FLOW MODEL =    62

 MAXIMUM STEPSIZE WHICH MEETS STABILITY CRITERION OF THE SINK & SOURCE TERM
 =  109.6    (WHEN MIN. R.F.=1)  AT K=   2, I=   1, J= 120

 MAXIMUM STEPSIZE WHICH MEETS STABILITY CRITERION OF THE DISPERSION TERM
 =  20.29    (WHEN MIN. R.F.=1)  AT K=   1, I=   1, J=  31
     1 CALLS TO GCG PACKAGE FOR TRANSPORT TIME STEP   4 IN FLOW TIME STEP 667 STRESS PERIOD   1
     4 TOTAL ITERATIONS
  MAXIMUM CONCENTRATION CHANGES FOR EACH ITERATION:
  MAX. CHANGE LAYER,ROW,COL MAX. CHANGE LAYER,ROW,COL MAX. CHANGE LAYER,ROW,COL MAX. CHANGE LAYER,ROW,COL MAX. CHANGE LAYER,ROW,COL
 ------------------------------------------------------------------------------------------------------------------------------------
   0.9255E-02 (  2,  1, 38)  0.1335E-03 (  2,  1, 78)  0.2247E-05 (  2,  1, 79)  0.4310E-07 (  3,  1, 79)


                                          ================================================
                                                         FROM TIME =   6670.0     TO    6680.0    

 
 SOLVING FOR HEAD 
 FLOW MODEL IS TRANSIENT
 FLOW MODEL CONTAINS CONSTANT-HEAD CELLS


 MAXIMUM STEPSIZE DURING WHICH ANY PARTICLE CANNOT MOVE MORE THAN ONE CELL
 =  5.491    (WHEN MIN. R.F.=1)  AT K=   4, I=   1, J=  47

 MAXIMUM STEPSIZE WHICH MEETS STABILITY CRITERION OF THE ADVECTION TERM
 (FOR PURE FINITE-DIFFERENCE OPTION, MIXELM=0) 
 =  3.884    (WHEN MIN. R.F.=1)  AT K=   2, I=   1, J=  77


 TOTAL NUMBER OF POINT SOURCES/SINKS PRESENT IN THE FLOW MODEL =    62

 MAXIMUM STEPSIZE WHICH MEETS STABILITY CRITERION OF THE SINK & SOURCE TERM
 =  110.4    (WHEN MIN. R.F.=1)  AT K=   2, I=   1, J= 120

 MAXIMUM STEPSIZE WHICH MEETS STABILITY CRITERION OF THE DISPERSION TERM
 =  20.29    (WHEN MIN. R.F.=1)  AT K=   1, I=   1, J=  31


     1 CALLS TO GCG PACKAGE FOR TRANSPORT TIME STEP   1 IN FLOW TIME STEP 668 STRESS PERIOD   1
     6 TOTAL ITERATIONS

 NO OUTPUT CONTROL FOR STRESS PERIOD    1   TIME STEP 668
 
 SOLVING FOR HEAD 
 FLOW MODEL IS TRANSIENT
 FLOW MODEL CONTAINS CONSTANT-HEAD CELLS


 MAXIMUM STEPSIZE DURING WHICH ANY PARTICLE CANNOT MOVE MORE THAN ONE CELL
 =  5.273    (WHEN MIN. R.F.=1)  AT K=   4, I=   1, J=  47

 MAXIMUM STEPSIZE WHICH MEETS STABILITY CRITERION OF THE ADVECTION TERM
 (FOR PURE FINITE-DIFFERENCE OPTION, MIXELM=0) 
 =  4.011    (WHEN MIN. R.F.=1)  AT K=   2, I=   1, J=  77


 TOTAL NUMBER OF POINT SOURCES/SINKS PRESENT IN THE FLOW MODEL =    62

 MAXIMUM STEPSIZE WHICH MEETS STABILITY CRITERION OF THE SINK & SOURCE TERM
 =  108.2    (WHEN MIN. R.F.=1)  AT K=   2, I=   1, J= 120

 MAXIMUM STEPSIZE WHICH MEETS STABILITY CRITERION OF THE DISPERSION TERM
 =  20.29    (WHEN MIN. R.F.=1)  AT K=   1, I=   1, J=  31
     1 CALLS TO GCG PACKAGE FOR TRANSPORT TIME STEP   2 IN FLOW TIME STEP 668 STRESS PERIOD   1
     6 TOTAL ITERATIONS
 
 SOLVING FOR HEAD 
 FLOW MODEL IS TRANSIENT
 FLOW MODEL CONTAINS CONSTANT-HEAD CELLS


 MAXIMUM STEPSIZE DURING WHICH ANY PARTICLE CANNOT MOVE MORE THAN ONE CELL
 =  5.123    (WHEN MIN. R.F.=1)  AT K=   4, I=   1, J=  47

 MAXIMUM STEPSIZE WHICH MEETS STABILITY CRITERION OF THE ADVECTION TERM
 (FOR PURE FINITE-DIFFERENCE OPTION, MIXELM=0) 
 =  4.067    (WHEN MIN. R.F.=1)  AT K=   2, I=   1, J=  40


 TOTAL NUMBER OF POINT SOURCES/SINKS PRESENT IN THE FLOW MODEL =    62

 MAXIMUM STEPSIZE WHICH MEETS STABILITY CRITERION OF THE SINK & SOURCE TERM
 =  107.1    (WHEN MIN. R.F.=1)  AT K=   2, I=   1, J= 120

 MAXIMUM STEPSIZE WHICH MEETS STABILITY CRITERION OF THE DISPERSION TERM
 =  20.29    (WHEN MIN. R.F.=1)  AT K=   1, I=   1, J=  31
     1 CALLS TO GCG PACKAGE FOR TRANSPORT TIME STEP   3 IN FLOW TIME STEP 668 STRESS PERIOD   1
     6 TOTAL ITERATIONS
 
 SOLVING FOR HEAD 
 FLOW MODEL IS TRANSIENT
 FLOW MODEL CONTAINS CONSTANT-HEAD CELLS


 MAXIMUM STEPSIZE DURING WHICH ANY PARTICLE CANNOT MOVE MORE THAN ONE CELL
 =  5.035    (WHEN MIN. R.F.=1)  AT K=   4, I=   1, J=  47

 MAXIMUM STEPSIZE WHICH MEETS STABILITY CRITERION OF THE ADVECTION TERM
 (FOR PURE FINITE-DIFFERENCE OPTION, MIXELM=0) 
 =  4.318    (WHEN MIN. R.F.=1)  AT K=   2, I=   1, J=  40


 TOTAL NUMBER OF POINT SOURCES/SINKS PRESENT IN THE FLOW MODEL =    62

 MAXIMUM STEPSIZE WHICH MEETS STABILITY CRITERION OF THE SINK & SOURCE TERM
 =  107.3    (WHEN MIN. R.F.=1)  AT K=   2, I=   1, J= 120

 MAXIMUM STEPSIZE WHICH MEETS STABILITY CRITERION OF THE DISPERSION TERM
 =  20.29    (WHEN MIN. R.F.=1)  AT K=   1, I=   1, J=  31
     1 CALLS TO GCG PACKAGE FOR TRANSPORT TIME STEP   4 IN FLOW TIME STEP 668 STRESS PERIOD   1
     5 TOTAL ITERATIONS
  MAXIMUM CONCENTRATION CHANGES FOR EACH ITERATION:
  MAX. CHANGE LAYER,ROW,COL MAX. CHANGE LAYER,ROW,COL MAX. CHANGE LAYER,ROW,COL MAX. CHANGE LAYER,ROW,COL MAX. CHANGE LAYER,ROW,COL
 ------------------------------------------------------------------------------------------------------------------------------------
   0.1345E-01 (  2,  1, 39)  0.2709E-03 (  2,  1, 76)  0.6079E-05 (  3,  1, 41)  0.1560E-06 (  3,  1, 75)  0.4094E-08 (  4,  1, 75)


                                          ================================================
                                                         FROM TIME =   6680.0     TO    6690.0    

 
 SOLVING FOR HEAD 
 FLOW MODEL IS TRANSIENT
 FLOW MODEL CONTAINS CONSTANT-HEAD CELLS


 MAXIMUM STEPSIZE DURING WHICH ANY PARTICLE CANNOT MOVE MORE THAN ONE CELL
 =  5.021    (WHEN MIN. R.F.=1)  AT K=   4, I=   1, J=  47

 MAXIMUM STEPSIZE WHICH MEETS STABILITY CRITERION OF THE ADVECTION TERM
 (FOR PURE FINITE-DIFFERENCE OPTION, MIXELM=0) 
 =  4.193    (WHEN MIN. R.F.=1)  AT K=   2, I=   1, J=  41


 TOTAL NUMBER OF POINT SOURCES/SINKS PRESENT IN THE FLOW MODEL =    62

 MAXIMUM STEPSIZE WHICH MEETS STABILITY CRITERION OF THE SINK & SOURCE TERM
 =  107.5    (WHEN MIN. R.F.=1)  AT K=   2, I=   1, J= 120

 MAXIMUM STEPSIZE WHICH MEETS STABILITY CRITERION OF THE DISPERSION TERM
 =  20.29    (WHEN MIN. R.F.=1)  AT K=   1, I=   1, J=  31


     1 CALLS TO GCG PACKAGE FOR TRANSPORT TIME STEP   1 IN FLOW TIME STEP 669 STRESS PERIOD   1
     6 TOTAL ITERATIONS

 NO OUTPUT CONTROL FOR STRESS PERIOD    1   TIME STEP 669
 
 SOLVING FOR HEAD 
 FLOW MODEL IS TRANSIENT
 FLOW MODEL CONTAINS CONSTANT-HEAD CELLS


 MAXIMUM STEPSIZE DURING WHICH ANY PARTICLE CANNOT MOVE MORE THAN ONE CELL
 =  5.022    (WHEN MIN. R.F.=1)  AT K=   4, I=   1, J=  47

 MAXIMUM STEPSIZE WHICH MEETS STABILITY CRITERION OF THE ADVECTION TERM
 (FOR PURE FINITE-DIFFERENCE OPTION, MIXELM=0) 
 =  3.890    (WHEN MIN. R.F.=1)  AT K=   2, I=   1, J=  41


 TOTAL NUMBER OF POINT SOURCES/SINKS PRESENT IN THE FLOW MODEL =    62

 MAXIMUM STEPSIZE WHICH MEETS STABILITY CRITERION OF THE SINK & SOURCE TERM
 =  105.9    (WHEN MIN. R.F.=1)  AT K=   2, I=   1, J= 120

 MAXIMUM STEPSIZE WHICH MEETS STABILITY CRITERION OF THE DISPERSION TERM
 =  20.29    (WHEN MIN. R.F.=1)  AT K=   1, I=   1, J=  31
     1 CALLS TO GCG PACKAGE FOR TRANSPORT TIME STEP   2 IN FLOW TIME STEP 669 STRESS PERIOD   1
     6 TOTAL ITERATIONS
 
 SOLVING FOR HEAD 
 FLOW MODEL IS TRANSIENT
 FLOW MODEL CONTAINS CONSTANT-HEAD CELLS


 MAXIMUM STEPSIZE DURING WHICH ANY PARTICLE CANNOT MOVE MORE THAN ONE CELL
 =  5.071    (WHEN MIN. R.F.=1)  AT K=   4, I=   1, J=  47

 MAXIMUM STEPSIZE WHICH MEETS STABILITY CRITERION OF THE ADVECTION TERM
 (FOR PURE FINITE-DIFFERENCE OPTION, MIXELM=0) 
 =  3.812    (WHEN MIN. R.F.=1)  AT K=   2, I=   1, J=  41


 TOTAL NUMBER OF POINT SOURCES/SINKS PRESENT IN THE FLOW MODEL =    62

 MAXIMUM STEPSIZE WHICH MEETS STABILITY CRITERION OF THE SINK & SOURCE TERM
 =  107.9    (WHEN MIN. R.F.=1)  AT K=   2, I=   1, J= 120

 MAXIMUM STEPSIZE WHICH MEETS STABILITY CRITERION OF THE DISPERSION TERM
 =  20.29    (WHEN MIN. R.F.=1)  AT K=   1, I=   1, J=  31
     1 CALLS TO GCG PACKAGE FOR TRANSPORT TIME STEP   3 IN FLOW TIME STEP 669 STRESS PERIOD   1
     6 TOTAL ITERATIONS
 
 SOLVING FOR HEAD 
 FLOW MODEL IS TRANSIENT
 FLOW MODEL CONTAINS CONSTANT-HEAD CELLS


 MAXIMUM STEPSIZE DURING WHICH ANY PARTICLE CANNOT MOVE MORE THAN ONE CELL
 =  5.132    (WHEN MIN. R.F.=1)  AT K=   5, I=   1, J=  47

 MAXIMUM STEPSIZE WHICH MEETS STABILITY CRITERION OF THE ADVECTION TERM
 (FOR PURE FINITE-DIFFERENCE OPTION, MIXELM=0) 
 =  3.895    (WHEN MIN. R.F.=1)  AT K=   2, I=   1, J=  41


 TOTAL NUMBER OF POINT SOURCES/SINKS PRESENT IN THE FLOW MODEL =    62

 MAXIMUM STEPSIZE WHICH MEETS STABILITY CRITERION OF THE SINK & SOURCE TERM
 =  110.1    (WHEN MIN. R.F.=1)  AT K=   2, I=   1, J= 120

 MAXIMUM STEPSIZE WHICH MEETS STABILITY CRITERION OF THE DISPERSION TERM
 =  20.29    (WHEN MIN. R.F.=1)  AT K=   1, I=   1, J=  31
     1 CALLS TO GCG PACKAGE FOR TRANSPORT TIME STEP   4 IN FLOW TIME STEP 669 STRESS PERIOD   1
     4 TOTAL ITERATIONS
  MAXIMUM CONCENTRATION CHANGES FOR EACH ITERATION:
  MAX. CHANGE LAYER,ROW,COL MAX. CHANGE LAYER,ROW,COL MAX. CHANGE LAYER,ROW,COL MAX. CHANGE LAYER,ROW,COL MAX. CHANGE LAYER,ROW,COL
 ------------------------------------------------------------------------------------------------------------------------------------
   0.8082E-02 (  2,  1, 77)  0.8711E-04 (  2,  1, 77)  0.1497E-05 (  2,  1, 78)  0.2694E-07 (  3,  1, 78)


                                          ================================================
                                                         FROM TIME =   6690.0     TO    6700.0    

 
 SOLVING FOR HEAD 
 FLOW MODEL IS TRANSIENT
 FLOW MODEL CONTAINS CONSTANT-HEAD CELLS


 MAXIMUM STEPSIZE DURING WHICH ANY PARTICLE CANNOT MOVE MORE THAN ONE CELL
 =  5.147    (WHEN MIN. R.F.=1)  AT K=   5, I=   1, J=  47

 MAXIMUM STEPSIZE WHICH MEETS STABILITY CRITERION OF THE ADVECTION TERM
 (FOR PURE FINITE-DIFFERENCE OPTION, MIXELM=0) 
 =  3.949    (WHEN MIN. R.F.=1)  AT K=   2, I=   1, J=  41


 TOTAL NUMBER OF POINT SOURCES/SINKS PRESENT IN THE FLOW MODEL =    62

 MAXIMUM STEPSIZE WHICH MEETS STABILITY CRITERION OF THE SINK & SOURCE TERM
 =  109.6    (WHEN MIN. R.F.=1)  AT K=   2, I=   1, J= 120

 MAXIMUM STEPSIZE WHICH MEETS STABILITY CRITERION OF THE DISPERSION TERM
 =  20.29    (WHEN MIN. R.F.=1)  AT K=   1, I=   1, J=  31


     1 CALLS TO GCG PACKAGE FOR TRANSPORT TIME STEP   1 IN FLOW TIME STEP 670 STRESS PERIOD   1
     6 TOTAL ITERATIONS

 NO OUTPUT CONTROL FOR STRESS PERIOD    1   TIME STEP 670
 
 SOLVING FOR HEAD 
 FLOW MODEL IS TRANSIENT
 FLOW MODEL CONTAINS CONSTANT-HEAD CELLS


 MAXIMUM STEPSIZE DURING WHICH ANY PARTICLE CANNOT MOVE MORE THAN ONE CELL
 =  5.229    (WHEN MIN. R.F.=1)  AT K=   5, I=   1, J=  47

 MAXIMUM STEPSIZE WHICH MEETS STABILITY CRITERION OF THE ADVECTION TERM
 (FOR PURE FINITE-DIFFERENCE OPTION, MIXELM=0) 
 =  4.044    (WHEN MIN. R.F.=1)  AT K=   2, I=   1, J=  42


 TOTAL NUMBER OF POINT SOURCES/SINKS PRESENT IN THE FLOW MODEL =    62

 MAXIMUM STEPSIZE WHICH MEETS STABILITY CRITERION OF THE SINK & SOURCE TERM
 =  107.4    (WHEN MIN. R.F.=1)  AT K=   2, I=   1, J= 120

 MAXIMUM STEPSIZE WHICH MEETS STABILITY CRITERION OF THE DISPERSION TERM
 =  20.29    (WHEN MIN. R.F.=1)  AT K=   1, I=   1, J=  31
     1 CALLS TO GCG PACKAGE FOR TRANSPORT TIME STEP   2 IN FLOW TIME STEP 670 STRESS PERIOD   1
     6 TOTAL ITERATIONS
 
 SOLVING FOR HEAD 
 FLOW MODEL IS TRANSIENT
 FLOW MODEL CONTAINS CONSTANT-HEAD CELLS


 MAXIMUM STEPSIZE DURING WHICH ANY PARTICLE CANNOT MOVE MORE THAN ONE CELL
 =  5.348    (WHEN MIN. R.F.=1)  AT K=   5, I=   1, J=  47

 MAXIMUM STEPSIZE WHICH MEETS STABILITY CRITERION OF THE ADVECTION TERM
 (FOR PURE FINITE-DIFFERENCE OPTION, MIXELM=0) 
 =  3.811    (WHEN MIN. R.F.=1)  AT K=   2, I=   1, J=  42


 TOTAL NUMBER OF POINT SOURCES/SINKS PRESENT IN THE FLOW MODEL =    62

 MAXIMUM STEPSIZE WHICH MEETS STABILITY CRITERION OF THE SINK & SOURCE TERM
 =  107.4    (WHEN MIN. R.F.=1)  AT K=   2, I=   1, J= 120

 MAXIMUM STEPSIZE WHICH MEETS STABILITY CRITERION OF THE DISPERSION TERM
 =  20.29    (WHEN MIN. R.F.=1)  AT K=   1, I=   1, J=  31
     1 CALLS TO GCG PACKAGE FOR TRANSPORT TIME STEP   3 IN FLOW TIME STEP 670 STRESS PERIOD   1
     6 TOTAL ITERATIONS
 
 SOLVING FOR HEAD 
 FLOW MODEL IS TRANSIENT
 FLOW MODEL CONTAINS CONSTANT-HEAD CELLS


 MAXIMUM STEPSIZE DURING WHICH ANY PARTICLE CANNOT MOVE MORE THAN ONE CELL
 =  5.498    (WHEN MIN. R.F.=1)  AT K=   6, I=   1, J=  47

 MAXIMUM STEPSIZE WHICH MEETS STABILITY CRITERION OF THE ADVECTION TERM
 (FOR PURE FINITE-DIFFERENCE OPTION, MIXELM=0) 
 =  3.749    (WHEN MIN. R.F.=1)  AT K=   2, I=   1, J=  42


 TOTAL NUMBER OF POINT SOURCES/SINKS PRESENT IN THE FLOW MODEL =    62

 MAXIMUM STEPSIZE WHICH MEETS STABILITY CRITERION OF THE SINK & SOURCE TERM
 =  109.4    (WHEN MIN. R.F.=1)  AT K=   2, I=   1, J= 120

 MAXIMUM STEPSIZE WHICH MEETS STABILITY CRITERION OF THE DISPERSION TERM
 =  20.29    (WHEN MIN. R.F.=1)  AT K=   1, I=   1, J=  31
     1 CALLS TO GCG PACKAGE FOR TRANSPORT TIME STEP   4 IN FLOW TIME STEP 670 STRESS PERIOD   1
     5 TOTAL ITERATIONS
  MAXIMUM CONCENTRATION CHANGES FOR EACH ITERATION:
  MAX. CHANGE LAYER,ROW,COL MAX. CHANGE LAYER,ROW,COL MAX. CHANGE LAYER,ROW,COL MAX. CHANGE LAYER,ROW,COL MAX. CHANGE LAYER,ROW,COL
 ------------------------------------------------------------------------------------------------------------------------------------
   0.1317E-01 (  2,  1, 83)  0.2403E-03 (  2,  1, 83)  0.4860E-05 (  2,  1, 84)  0.1910E-06 (  3,  1, 45)  0.3413E-08 (  4,  1, 45)


                                          ================================================
                                                         FROM TIME =   6700.0     TO    6710.0    

 
 SOLVING FOR HEAD 
 FLOW MODEL IS TRANSIENT
 FLOW MODEL CONTAINS CONSTANT-HEAD CELLS


 MAXIMUM STEPSIZE DURING WHICH ANY PARTICLE CANNOT MOVE MORE THAN ONE CELL
 =  5.540    (WHEN MIN. R.F.=1)  AT K=   6, I=   1, J=  47

 MAXIMUM STEPSIZE WHICH MEETS STABILITY CRITERION OF THE ADVECTION TERM
 (FOR PURE FINITE-DIFFERENCE OPTION, MIXELM=0) 
 =  3.759    (WHEN MIN. R.F.=1)  AT K=   2, I=   1, J=  42


 TOTAL NUMBER OF POINT SOURCES/SINKS PRESENT IN THE FLOW MODEL =    62

 MAXIMUM STEPSIZE WHICH MEETS STABILITY CRITERION OF THE SINK & SOURCE TERM
 =  111.8    (WHEN MIN. R.F.=1)  AT K=   2, I=   1, J= 120

 MAXIMUM STEPSIZE WHICH MEETS STABILITY CRITERION OF THE DISPERSION TERM
 =  20.29    (WHEN MIN. R.F.=1)  AT K=   1, I=   1, J=  31


     1 CALLS TO GCG PACKAGE FOR TRANSPORT TIME STEP   1 IN FLOW TIME STEP 671 STRESS PERIOD   1
     6 TOTAL ITERATIONS

 NO OUTPUT CONTROL FOR STRESS PERIOD    1   TIME STEP 671
 
 SOLVING FOR HEAD 
 FLOW MODEL IS TRANSIENT
 FLOW MODEL CONTAINS CONSTANT-HEAD CELLS


 MAXIMUM STEPSIZE DURING WHICH ANY PARTICLE CANNOT MOVE MORE THAN ONE CELL
 =  5.663    (WHEN MIN. R.F.=1)  AT K=   6, I=   1, J=  47

 MAXIMUM STEPSIZE WHICH MEETS STABILITY CRITERION OF THE ADVECTION TERM
 (FOR PURE FINITE-DIFFERENCE OPTION, MIXELM=0) 
 =  3.864    (WHEN MIN. R.F.=1)  AT K=   2, I=   1, J=  42


 TOTAL NUMBER OF POINT SOURCES/SINKS PRESENT IN THE FLOW MODEL =    62

 MAXIMUM STEPSIZE WHICH MEETS STABILITY CRITERION OF THE SINK & SOURCE TERM
 =  110.0    (WHEN MIN. R.F.=1)  AT K=   2, I=   1, J= 120

 MAXIMUM STEPSIZE WHICH MEETS STABILITY CRITERION OF THE DISPERSION TERM
 =  20.29    (WHEN MIN. R.F.=1)  AT K=   1, I=   1, J=  31
     1 CALLS TO GCG PACKAGE FOR TRANSPORT TIME STEP   2 IN FLOW TIME STEP 671 STRESS PERIOD   1
     6 TOTAL ITERATIONS



 >>>>>>>>>>>>>>>>>>>>>>>>>>>>>>>>>>>>>>>>>>>>>>>>>>>>>>>FOR COMPONENT NO. 01<<<<<<<<<<<<<<<<<<<<<<<<<<<<<<<<<<<<<<<<<<<<<<<<<<<<<<<


                                            -------------------------------------------
                                                      TRANSPORT STEP NO.    2
                                            -------------------------------------------

 TOTAL ELAPSED TIME SINCE BEGINNING OF SIMULATION =   6705.500    D   
 .....................................................................

                     CUMULATIVE MASS BUDGETS AT END OF TRANSPORT STEP    2, TIME STEP  671, STRESS PERIOD    1
                     ------------------------------------------------------------------------------------------

                                                             IN                           OUT
                                                      ----------------             ----------------
                               CONSTANT CONCENTRATION:    3827692.                   -2899874.    
                                        CONSTANT HEAD:    0.000000                   -1211.812    
                               MASS STOR (FLOW MODEL):    453.7511                   -646.0097    
                                MASS STORAGE (SOLUTE):    6857019.                   -7783432.    
                            ---------------------------------------------------------------------------
                                              [TOTAL]:   0.1068516E+08 KG           -0.1068516E+08 KG  

                                                          NET (IN - OUT):  -0.2257745E-01
                                                   DISCREPANCY (PERCENT):  -0.2112972E-06
 
 SOLVING FOR HEAD 
 FLOW MODEL IS TRANSIENT
 FLOW MODEL CONTAINS CONSTANT-HEAD CELLS


 MAXIMUM STEPSIZE DURING WHICH ANY PARTICLE CANNOT MOVE MORE THAN ONE CELL
 =  5.531    (WHEN MIN. R.F.=1)  AT K=   4, I=   1, J=  74

 MAXIMUM STEPSIZE WHICH MEETS STABILITY CRITERION OF THE ADVECTION TERM
 (FOR PURE FINITE-DIFFERENCE OPTION, MIXELM=0) 
 =  4.135    (WHEN MIN. R.F.=1)  AT K=   2, I=   1, J=  42


 TOTAL NUMBER OF POINT SOURCES/SINKS PRESENT IN THE FLOW MODEL =    62

 MAXIMUM STEPSIZE WHICH MEETS STABILITY CRITERION OF THE SINK & SOURCE TERM
 =  111.0    (WHEN MIN. R.F.=1)  AT K=   2, I=   1, J= 120

 MAXIMUM STEPSIZE WHICH MEETS STABILITY CRITERION OF THE DISPERSION TERM
 =  20.29    (WHEN MIN. R.F.=1)  AT K=   1, I=   1, J=  31
     1 CALLS TO GCG PACKAGE FOR TRANSPORT TIME STEP   3 IN FLOW TIME STEP 671 STRESS PERIOD   1
     6 TOTAL ITERATIONS
 
 SOLVING FOR HEAD 
 FLOW MODEL IS TRANSIENT
 FLOW MODEL CONTAINS CONSTANT-HEAD CELLS


 MAXIMUM STEPSIZE DURING WHICH ANY PARTICLE CANNOT MOVE MORE THAN ONE CELL
 =  5.327    (WHEN MIN. R.F.=1)  AT K=   4, I=   1, J=  74

 MAXIMUM STEPSIZE WHICH MEETS STABILITY CRITERION OF THE ADVECTION TERM
 (FOR PURE FINITE-DIFFERENCE OPTION, MIXELM=0) 
 =  3.962    (WHEN MIN. R.F.=1)  AT K=   2, I=   1, J=  81


 TOTAL NUMBER OF POINT SOURCES/SINKS PRESENT IN THE FLOW MODEL =    62

 MAXIMUM STEPSIZE WHICH MEETS STABILITY CRITERION OF THE SINK & SOURCE TERM
 =  112.7    (WHEN MIN. R.F.=1)  AT K=   2, I=   1, J= 120

 MAXIMUM STEPSIZE WHICH MEETS STABILITY CRITERION OF THE DISPERSION TERM
 =  20.29    (WHEN MIN. R.F.=1)  AT K=   1, I=   1, J=  31
     1 CALLS TO GCG PACKAGE FOR TRANSPORT TIME STEP   4 IN FLOW TIME STEP 671 STRESS PERIOD   1
     5 TOTAL ITERATIONS
  MAXIMUM CONCENTRATION CHANGES FOR EACH ITERATION:
  MAX. CHANGE LAYER,ROW,COL MAX. CHANGE LAYER,ROW,COL MAX. CHANGE LAYER,ROW,COL MAX. CHANGE LAYER,ROW,COL MAX. CHANGE LAYER,ROW,COL
 ------------------------------------------------------------------------------------------------------------------------------------
   0.1825E-01 (  2,  1, 76)  0.5067E-03 (  2,  1, 82)  0.1581E-04 (  2,  1, 83)  0.5663E-06 (  3,  1, 77)  0.1515E-07 (  4,  1, 77)


                                          ================================================
                                                         FROM TIME =   6710.0     TO    6720.0    

 
 SOLVING FOR HEAD 
 FLOW MODEL IS TRANSIENT
 FLOW MODEL CONTAINS CONSTANT-HEAD CELLS


 MAXIMUM STEPSIZE DURING WHICH ANY PARTICLE CANNOT MOVE MORE THAN ONE CELL
 =  5.237    (WHEN MIN. R.F.=1)  AT K=   4, I=   1, J=  74

 MAXIMUM STEPSIZE WHICH MEETS STABILITY CRITERION OF THE ADVECTION TERM
 (FOR PURE FINITE-DIFFERENCE OPTION, MIXELM=0) 
 =  3.878    (WHEN MIN. R.F.=1)  AT K=   2, I=   1, J=  43


 TOTAL NUMBER OF POINT SOURCES/SINKS PRESENT IN THE FLOW MODEL =    62

 MAXIMUM STEPSIZE WHICH MEETS STABILITY CRITERION OF THE SINK & SOURCE TERM
 =  114.3    (WHEN MIN. R.F.=1)  AT K=   2, I=   1, J= 120

 MAXIMUM STEPSIZE WHICH MEETS STABILITY CRITERION OF THE DISPERSION TERM
 =  20.29    (WHEN MIN. R.F.=1)  AT K=   1, I=   1, J=  31


     1 CALLS TO GCG PACKAGE FOR TRANSPORT TIME STEP   1 IN FLOW TIME STEP 672 STRESS PERIOD   1
     6 TOTAL ITERATIONS

 NO OUTPUT CONTROL FOR STRESS PERIOD    1   TIME STEP 672
 
 SOLVING FOR HEAD 
 FLOW MODEL IS TRANSIENT
 FLOW MODEL CONTAINS CONSTANT-HEAD CELLS


 MAXIMUM STEPSIZE DURING WHICH ANY PARTICLE CANNOT MOVE MORE THAN ONE CELL
 =  5.111    (WHEN MIN. R.F.=1)  AT K=   4, I=   1, J=  74

 MAXIMUM STEPSIZE WHICH MEETS STABILITY CRITERION OF THE ADVECTION TERM
 (FOR PURE FINITE-DIFFERENCE OPTION, MIXELM=0) 
 =  3.810    (WHEN MIN. R.F.=1)  AT K=   2, I=   1, J=  43


 TOTAL NUMBER OF POINT SOURCES/SINKS PRESENT IN THE FLOW MODEL =    62

 MAXIMUM STEPSIZE WHICH MEETS STABILITY CRITERION OF THE SINK & SOURCE TERM
 =  114.3    (WHEN MIN. R.F.=1)  AT K=   2, I=   1, J= 120

 MAXIMUM STEPSIZE WHICH MEETS STABILITY CRITERION OF THE DISPERSION TERM
 =  20.29    (WHEN MIN. R.F.=1)  AT K=   1, I=   1, J=  31
     1 CALLS TO GCG PACKAGE FOR TRANSPORT TIME STEP   2 IN FLOW TIME STEP 672 STRESS PERIOD   1
     6 TOTAL ITERATIONS
 
 SOLVING FOR HEAD 
 FLOW MODEL IS TRANSIENT
 FLOW MODEL CONTAINS CONSTANT-HEAD CELLS


 MAXIMUM STEPSIZE DURING WHICH ANY PARTICLE CANNOT MOVE MORE THAN ONE CELL
 =  5.031    (WHEN MIN. R.F.=1)  AT K=   4, I=   1, J=  74

 MAXIMUM STEPSIZE WHICH MEETS STABILITY CRITERION OF THE ADVECTION TERM
 (FOR PURE FINITE-DIFFERENCE OPTION, MIXELM=0) 
 =  3.863    (WHEN MIN. R.F.=1)  AT K=   2, I=   1, J=  43


 TOTAL NUMBER OF POINT SOURCES/SINKS PRESENT IN THE FLOW MODEL =    62

 MAXIMUM STEPSIZE WHICH MEETS STABILITY CRITERION OF THE SINK & SOURCE TERM
 =  115.6    (WHEN MIN. R.F.=1)  AT K=   2, I=   1, J= 120

 MAXIMUM STEPSIZE WHICH MEETS STABILITY CRITERION OF THE DISPERSION TERM
 =  20.29    (WHEN MIN. R.F.=1)  AT K=   1, I=   1, J=  31
     1 CALLS TO GCG PACKAGE FOR TRANSPORT TIME STEP   3 IN FLOW TIME STEP 672 STRESS PERIOD   1
     6 TOTAL ITERATIONS
 
 SOLVING FOR HEAD 
 FLOW MODEL IS TRANSIENT
 FLOW MODEL CONTAINS CONSTANT-HEAD CELLS


 MAXIMUM STEPSIZE DURING WHICH ANY PARTICLE CANNOT MOVE MORE THAN ONE CELL
 =  4.996    (WHEN MIN. R.F.=1)  AT K=   4, I=   1, J=  74

 MAXIMUM STEPSIZE WHICH MEETS STABILITY CRITERION OF THE ADVECTION TERM
 (FOR PURE FINITE-DIFFERENCE OPTION, MIXELM=0) 
 =  3.719    (WHEN MIN. R.F.=1)  AT K=   2, I=   1, J=  80


 TOTAL NUMBER OF POINT SOURCES/SINKS PRESENT IN THE FLOW MODEL =    62

 MAXIMUM STEPSIZE WHICH MEETS STABILITY CRITERION OF THE SINK & SOURCE TERM
 =  117.9    (WHEN MIN. R.F.=1)  AT K=   2, I=   1, J= 120

 MAXIMUM STEPSIZE WHICH MEETS STABILITY CRITERION OF THE DISPERSION TERM
 =  20.29    (WHEN MIN. R.F.=1)  AT K=   1, I=   1, J=  31
     1 CALLS TO GCG PACKAGE FOR TRANSPORT TIME STEP   4 IN FLOW TIME STEP 672 STRESS PERIOD   1
     5 TOTAL ITERATIONS
  MAXIMUM CONCENTRATION CHANGES FOR EACH ITERATION:
  MAX. CHANGE LAYER,ROW,COL MAX. CHANGE LAYER,ROW,COL MAX. CHANGE LAYER,ROW,COL MAX. CHANGE LAYER,ROW,COL MAX. CHANGE LAYER,ROW,COL
 ------------------------------------------------------------------------------------------------------------------------------------
   0.1394E-01 (  2,  1, 42)  0.2651E-03 (  2,  1, 44)  0.6808E-05 (  3,  1, 44)  0.2726E-06 (  3,  1, 77)  0.6221E-08 (  4,  1, 77)


                                          ================================================
                                                         FROM TIME =   6720.0     TO    6730.0    

 
 SOLVING FOR HEAD 
 FLOW MODEL IS TRANSIENT
 FLOW MODEL CONTAINS CONSTANT-HEAD CELLS


 MAXIMUM STEPSIZE DURING WHICH ANY PARTICLE CANNOT MOVE MORE THAN ONE CELL
 =  4.995    (WHEN MIN. R.F.=1)  AT K=   4, I=   1, J=  74

 MAXIMUM STEPSIZE WHICH MEETS STABILITY CRITERION OF THE ADVECTION TERM
 (FOR PURE FINITE-DIFFERENCE OPTION, MIXELM=0) 
 =  3.675    (WHEN MIN. R.F.=1)  AT K=   2, I=   1, J=  80


 TOTAL NUMBER OF POINT SOURCES/SINKS PRESENT IN THE FLOW MODEL =    62

 MAXIMUM STEPSIZE WHICH MEETS STABILITY CRITERION OF THE SINK & SOURCE TERM
 =  120.5    (WHEN MIN. R.F.=1)  AT K=   2, I=   1, J= 120

 MAXIMUM STEPSIZE WHICH MEETS STABILITY CRITERION OF THE DISPERSION TERM
 =  20.29    (WHEN MIN. R.F.=1)  AT K=   1, I=   1, J=  31


     1 CALLS TO GCG PACKAGE FOR TRANSPORT TIME STEP   1 IN FLOW TIME STEP 673 STRESS PERIOD   1
     6 TOTAL ITERATIONS

 NO OUTPUT CONTROL FOR STRESS PERIOD    1   TIME STEP 673
 
 SOLVING FOR HEAD 
 FLOW MODEL IS TRANSIENT
 FLOW MODEL CONTAINS CONSTANT-HEAD CELLS


 MAXIMUM STEPSIZE DURING WHICH ANY PARTICLE CANNOT MOVE MORE THAN ONE CELL
 =  5.019    (WHEN MIN. R.F.=1)  AT K=   4, I=   1, J=  74

 MAXIMUM STEPSIZE WHICH MEETS STABILITY CRITERION OF THE ADVECTION TERM
 (FOR PURE FINITE-DIFFERENCE OPTION, MIXELM=0) 
 =  3.654    (WHEN MIN. R.F.=1)  AT K=   2, I=   1, J=  80


 TOTAL NUMBER OF POINT SOURCES/SINKS PRESENT IN THE FLOW MODEL =    62

 MAXIMUM STEPSIZE WHICH MEETS STABILITY CRITERION OF THE SINK & SOURCE TERM
 =  120.6    (WHEN MIN. R.F.=1)  AT K=   2, I=   1, J= 120

 MAXIMUM STEPSIZE WHICH MEETS STABILITY CRITERION OF THE DISPERSION TERM
 =  20.29    (WHEN MIN. R.F.=1)  AT K=   1, I=   1, J=  31
     1 CALLS TO GCG PACKAGE FOR TRANSPORT TIME STEP   2 IN FLOW TIME STEP 673 STRESS PERIOD   1
     6 TOTAL ITERATIONS
 
 SOLVING FOR HEAD 
 FLOW MODEL IS TRANSIENT
 FLOW MODEL CONTAINS CONSTANT-HEAD CELLS


 MAXIMUM STEPSIZE DURING WHICH ANY PARTICLE CANNOT MOVE MORE THAN ONE CELL
 =  5.084    (WHEN MIN. R.F.=1)  AT K=   5, I=   1, J=  74

 MAXIMUM STEPSIZE WHICH MEETS STABILITY CRITERION OF THE ADVECTION TERM
 (FOR PURE FINITE-DIFFERENCE OPTION, MIXELM=0) 
 =  3.832    (WHEN MIN. R.F.=1)  AT K=   2, I=   1, J=  80


 TOTAL NUMBER OF POINT SOURCES/SINKS PRESENT IN THE FLOW MODEL =    62

 MAXIMUM STEPSIZE WHICH MEETS STABILITY CRITERION OF THE SINK & SOURCE TERM
 =  124.7    (WHEN MIN. R.F.=1)  AT K=   2, I=   1, J= 120

 MAXIMUM STEPSIZE WHICH MEETS STABILITY CRITERION OF THE DISPERSION TERM
 =  20.29    (WHEN MIN. R.F.=1)  AT K=   1, I=   1, J=  31
     1 CALLS TO GCG PACKAGE FOR TRANSPORT TIME STEP   3 IN FLOW TIME STEP 673 STRESS PERIOD   1
     6 TOTAL ITERATIONS
 
 SOLVING FOR HEAD 
 FLOW MODEL IS TRANSIENT
 FLOW MODEL CONTAINS CONSTANT-HEAD CELLS


 MAXIMUM STEPSIZE DURING WHICH ANY PARTICLE CANNOT MOVE MORE THAN ONE CELL
 =  5.125    (WHEN MIN. R.F.=1)  AT K=   5, I=   1, J=  74

 MAXIMUM STEPSIZE WHICH MEETS STABILITY CRITERION OF THE ADVECTION TERM
 (FOR PURE FINITE-DIFFERENCE OPTION, MIXELM=0) 
 =  3.851    (WHEN MIN. R.F.=1)  AT K=   2, I=   1, J=  79


 TOTAL NUMBER OF POINT SOURCES/SINKS PRESENT IN THE FLOW MODEL =    62

 MAXIMUM STEPSIZE WHICH MEETS STABILITY CRITERION OF THE SINK & SOURCE TERM
 =  128.8    (WHEN MIN. R.F.=1)  AT K=   2, I=   1, J= 120

 MAXIMUM STEPSIZE WHICH MEETS STABILITY CRITERION OF THE DISPERSION TERM
 =  20.29    (WHEN MIN. R.F.=1)  AT K=   1, I=   1, J=  31
     1 CALLS TO GCG PACKAGE FOR TRANSPORT TIME STEP   4 IN FLOW TIME STEP 673 STRESS PERIOD   1
     5 TOTAL ITERATIONS
  MAXIMUM CONCENTRATION CHANGES FOR EACH ITERATION:
  MAX. CHANGE LAYER,ROW,COL MAX. CHANGE LAYER,ROW,COL MAX. CHANGE LAYER,ROW,COL MAX. CHANGE LAYER,ROW,COL MAX. CHANGE LAYER,ROW,COL
 ------------------------------------------------------------------------------------------------------------------------------------
   0.2023E-01 (  2,  1, 81)  0.5619E-03 (  2,  1, 79)  0.2027E-04 (  3,  1, 79)  0.7904E-06 (  3,  1, 76)  0.2137E-07 (  3,  1, 33)


                                          ================================================
                                                         FROM TIME =   6730.0     TO    6740.0    

 
 SOLVING FOR HEAD 
 FLOW MODEL IS TRANSIENT
 FLOW MODEL CONTAINS CONSTANT-HEAD CELLS


 MAXIMUM STEPSIZE DURING WHICH ANY PARTICLE CANNOT MOVE MORE THAN ONE CELL
 =  5.170    (WHEN MIN. R.F.=1)  AT K=   5, I=   1, J=  74

 MAXIMUM STEPSIZE WHICH MEETS STABILITY CRITERION OF THE ADVECTION TERM
 (FOR PURE FINITE-DIFFERENCE OPTION, MIXELM=0) 
 =  3.711    (WHEN MIN. R.F.=1)  AT K=   2, I=   1, J=  79


 TOTAL NUMBER OF POINT SOURCES/SINKS PRESENT IN THE FLOW MODEL =    62

 MAXIMUM STEPSIZE WHICH MEETS STABILITY CRITERION OF THE SINK & SOURCE TERM
 =  132.7    (WHEN MIN. R.F.=1)  AT K=   2, I=   1, J= 120

 MAXIMUM STEPSIZE WHICH MEETS STABILITY CRITERION OF THE DISPERSION TERM
 =  20.29    (WHEN MIN. R.F.=1)  AT K=   1, I=   1, J=  31


     1 CALLS TO GCG PACKAGE FOR TRANSPORT TIME STEP   1 IN FLOW TIME STEP 674 STRESS PERIOD   1
     6 TOTAL ITERATIONS

 NO OUTPUT CONTROL FOR STRESS PERIOD    1   TIME STEP 674
 
 SOLVING FOR HEAD 
 FLOW MODEL IS TRANSIENT
 FLOW MODEL CONTAINS CONSTANT-HEAD CELLS


 MAXIMUM STEPSIZE DURING WHICH ANY PARTICLE CANNOT MOVE MORE THAN ONE CELL
 =  5.267    (WHEN MIN. R.F.=1)  AT K=   5, I=   1, J=  74

 MAXIMUM STEPSIZE WHICH MEETS STABILITY CRITERION OF THE ADVECTION TERM
 (FOR PURE FINITE-DIFFERENCE OPTION, MIXELM=0) 
 =  3.585    (WHEN MIN. R.F.=1)  AT K=   2, I=   1, J=  79


 TOTAL NUMBER OF POINT SOURCES/SINKS PRESENT IN THE FLOW MODEL =    62

 MAXIMUM STEPSIZE WHICH MEETS STABILITY CRITERION OF THE SINK & SOURCE TERM
 =  134.6    (WHEN MIN. R.F.=1)  AT K=   2, I=   1, J= 120

 MAXIMUM STEPSIZE WHICH MEETS STABILITY CRITERION OF THE DISPERSION TERM
 =  20.29    (WHEN MIN. R.F.=1)  AT K=   1, I=   1, J=  31
     1 CALLS TO GCG PACKAGE FOR TRANSPORT TIME STEP   2 IN FLOW TIME STEP 674 STRESS PERIOD   1
     6 TOTAL ITERATIONS
 
 SOLVING FOR HEAD 
 FLOW MODEL IS TRANSIENT
 FLOW MODEL CONTAINS CONSTANT-HEAD CELLS


 MAXIMUM STEPSIZE DURING WHICH ANY PARTICLE CANNOT MOVE MORE THAN ONE CELL
 =  5.394    (WHEN MIN. R.F.=1)  AT K=   5, I=   1, J=  74

 MAXIMUM STEPSIZE WHICH MEETS STABILITY CRITERION OF THE ADVECTION TERM
 (FOR PURE FINITE-DIFFERENCE OPTION, MIXELM=0) 
 =  3.597    (WHEN MIN. R.F.=1)  AT K=   2, I=   1, J=  79


 TOTAL NUMBER OF POINT SOURCES/SINKS PRESENT IN THE FLOW MODEL =    62

 MAXIMUM STEPSIZE WHICH MEETS STABILITY CRITERION OF THE SINK & SOURCE TERM
 =  139.2    (WHEN MIN. R.F.=1)  AT K=   2, I=   1, J= 120

 MAXIMUM STEPSIZE WHICH MEETS STABILITY CRITERION OF THE DISPERSION TERM
 =  20.29    (WHEN MIN. R.F.=1)  AT K=   1, I=   1, J=  31
     1 CALLS TO GCG PACKAGE FOR TRANSPORT TIME STEP   3 IN FLOW TIME STEP 674 STRESS PERIOD   1
     6 TOTAL ITERATIONS
 
 SOLVING FOR HEAD 
 FLOW MODEL IS TRANSIENT
 FLOW MODEL CONTAINS CONSTANT-HEAD CELLS


 MAXIMUM STEPSIZE DURING WHICH ANY PARTICLE CANNOT MOVE MORE THAN ONE CELL
 =  5.483    (WHEN MIN. R.F.=1)  AT K=   6, I=   1, J=  74

 MAXIMUM STEPSIZE WHICH MEETS STABILITY CRITERION OF THE ADVECTION TERM
 (FOR PURE FINITE-DIFFERENCE OPTION, MIXELM=0) 
 =  3.742    (WHEN MIN. R.F.=1)  AT K=   2, I=   1, J=  79


 TOTAL NUMBER OF POINT SOURCES/SINKS PRESENT IN THE FLOW MODEL =    62

 MAXIMUM STEPSIZE WHICH MEETS STABILITY CRITERION OF THE SINK & SOURCE TERM
 =  144.2    (WHEN MIN. R.F.=1)  AT K=   2, I=   1, J= 120

 MAXIMUM STEPSIZE WHICH MEETS STABILITY CRITERION OF THE DISPERSION TERM
 =  20.29    (WHEN MIN. R.F.=1)  AT K=   1, I=   1, J=  31
     1 CALLS TO GCG PACKAGE FOR TRANSPORT TIME STEP   4 IN FLOW TIME STEP 674 STRESS PERIOD   1
     5 TOTAL ITERATIONS
  MAXIMUM CONCENTRATION CHANGES FOR EACH ITERATION:
  MAX. CHANGE LAYER,ROW,COL MAX. CHANGE LAYER,ROW,COL MAX. CHANGE LAYER,ROW,COL MAX. CHANGE LAYER,ROW,COL MAX. CHANGE LAYER,ROW,COL
 ------------------------------------------------------------------------------------------------------------------------------------
   0.2015E-01 (  2,  1, 80)  0.4859E-03 (  2,  1, 78)  0.2094E-04 (  3,  1, 78)  0.8525E-06 (  3,  1, 76)  0.1988E-07 (  4,  1, 76)


                                          ================================================
                                                         FROM TIME =   6740.0     TO    6750.0    

 
 SOLVING FOR HEAD 
 FLOW MODEL IS TRANSIENT
 FLOW MODEL CONTAINS CONSTANT-HEAD CELLS


 MAXIMUM STEPSIZE DURING WHICH ANY PARTICLE CANNOT MOVE MORE THAN ONE CELL
 =  5.551    (WHEN MIN. R.F.=1)  AT K=   6, I=   1, J=  74

 MAXIMUM STEPSIZE WHICH MEETS STABILITY CRITERION OF THE ADVECTION TERM
 (FOR PURE FINITE-DIFFERENCE OPTION, MIXELM=0) 
 =  3.939    (WHEN MIN. R.F.=1)  AT K=   2, I=   1, J=  79


 TOTAL NUMBER OF POINT SOURCES/SINKS PRESENT IN THE FLOW MODEL =    62

 MAXIMUM STEPSIZE WHICH MEETS STABILITY CRITERION OF THE SINK & SOURCE TERM
 =  148.0    (WHEN MIN. R.F.=1)  AT K=   2, I=   1, J= 120

 MAXIMUM STEPSIZE WHICH MEETS STABILITY CRITERION OF THE DISPERSION TERM
 =  20.29    (WHEN MIN. R.F.=1)  AT K=   1, I=   1, J=  31


     1 CALLS TO GCG PACKAGE FOR TRANSPORT TIME STEP   1 IN FLOW TIME STEP 675 STRESS PERIOD   1
     6 TOTAL ITERATIONS

 NO OUTPUT CONTROL FOR STRESS PERIOD    1   TIME STEP 675
 
 SOLVING FOR HEAD 
 FLOW MODEL IS TRANSIENT
 FLOW MODEL CONTAINS CONSTANT-HEAD CELLS


 MAXIMUM STEPSIZE DURING WHICH ANY PARTICLE CANNOT MOVE MORE THAN ONE CELL
 =  5.689    (WHEN MIN. R.F.=1)  AT K=   6, I=   1, J=  74

 MAXIMUM STEPSIZE WHICH MEETS STABILITY CRITERION OF THE ADVECTION TERM
 (FOR PURE FINITE-DIFFERENCE OPTION, MIXELM=0) 
 =  3.920    (WHEN MIN. R.F.=1)  AT K=   2, I=   1, J=  78


 TOTAL NUMBER OF POINT SOURCES/SINKS PRESENT IN THE FLOW MODEL =    62

 MAXIMUM STEPSIZE WHICH MEETS STABILITY CRITERION OF THE SINK & SOURCE TERM
 =  149.7    (WHEN MIN. R.F.=1)  AT K=   2, I=   1, J= 120

 MAXIMUM STEPSIZE WHICH MEETS STABILITY CRITERION OF THE DISPERSION TERM
 =  20.29    (WHEN MIN. R.F.=1)  AT K=   1, I=   1, J=  31
     1 CALLS TO GCG PACKAGE FOR TRANSPORT TIME STEP   2 IN FLOW TIME STEP 675 STRESS PERIOD   1
     6 TOTAL ITERATIONS
 
 SOLVING FOR HEAD 
 FLOW MODEL IS TRANSIENT
 FLOW MODEL CONTAINS CONSTANT-HEAD CELLS


 MAXIMUM STEPSIZE DURING WHICH ANY PARTICLE CANNOT MOVE MORE THAN ONE CELL
 =  5.767    (WHEN MIN. R.F.=1)  AT K=  28, I=   1, J=  52

 MAXIMUM STEPSIZE WHICH MEETS STABILITY CRITERION OF THE ADVECTION TERM
 (FOR PURE FINITE-DIFFERENCE OPTION, MIXELM=0) 
 =  3.718    (WHEN MIN. R.F.=1)  AT K=   2, I=   1, J=  78


 TOTAL NUMBER OF POINT SOURCES/SINKS PRESENT IN THE FLOW MODEL =    62

 MAXIMUM STEPSIZE WHICH MEETS STABILITY CRITERION OF THE SINK & SOURCE TERM
 =  155.3    (WHEN MIN. R.F.=1)  AT K=   2, I=   1, J= 120

 MAXIMUM STEPSIZE WHICH MEETS STABILITY CRITERION OF THE DISPERSION TERM
 =  20.29    (WHEN MIN. R.F.=1)  AT K=   1, I=   1, J=  31
     1 CALLS TO GCG PACKAGE FOR TRANSPORT TIME STEP   3 IN FLOW TIME STEP 675 STRESS PERIOD   1
     6 TOTAL ITERATIONS
 
 SOLVING FOR HEAD 
 FLOW MODEL IS TRANSIENT
 FLOW MODEL CONTAINS CONSTANT-HEAD CELLS


 MAXIMUM STEPSIZE DURING WHICH ANY PARTICLE CANNOT MOVE MORE THAN ONE CELL
 =  5.761    (WHEN MIN. R.F.=1)  AT K=  28, I=   1, J=  52

 MAXIMUM STEPSIZE WHICH MEETS STABILITY CRITERION OF THE ADVECTION TERM
 (FOR PURE FINITE-DIFFERENCE OPTION, MIXELM=0) 
 =  3.678    (WHEN MIN. R.F.=1)  AT K=   2, I=   1, J=  78


 TOTAL NUMBER OF POINT SOURCES/SINKS PRESENT IN THE FLOW MODEL =    62

 MAXIMUM STEPSIZE WHICH MEETS STABILITY CRITERION OF THE SINK & SOURCE TERM
 =  162.8    (WHEN MIN. R.F.=1)  AT K=   2, I=   1, J= 120

 MAXIMUM STEPSIZE WHICH MEETS STABILITY CRITERION OF THE DISPERSION TERM
 =  20.29    (WHEN MIN. R.F.=1)  AT K=   1, I=   1, J=  31
     1 CALLS TO GCG PACKAGE FOR TRANSPORT TIME STEP   4 IN FLOW TIME STEP 675 STRESS PERIOD   1
     5 TOTAL ITERATIONS
  MAXIMUM CONCENTRATION CHANGES FOR EACH ITERATION:
  MAX. CHANGE LAYER,ROW,COL MAX. CHANGE LAYER,ROW,COL MAX. CHANGE LAYER,ROW,COL MAX. CHANGE LAYER,ROW,COL MAX. CHANGE LAYER,ROW,COL
 ------------------------------------------------------------------------------------------------------------------------------------
   0.1496E-01 (  2,  1, 79)  0.3273E-03 (  2,  1, 79)  0.8647E-05 (  2,  1, 80)  0.2566E-06 (  3,  1, 80)  0.6755E-08 (  3,  1, 77)


                                          ================================================
                                                         FROM TIME =   6750.0     TO    6760.0    

 
 SOLVING FOR HEAD 
 FLOW MODEL IS TRANSIENT
 FLOW MODEL CONTAINS CONSTANT-HEAD CELLS


 MAXIMUM STEPSIZE DURING WHICH ANY PARTICLE CANNOT MOVE MORE THAN ONE CELL
 =  5.765    (WHEN MIN. R.F.=1)  AT K=  28, I=   1, J=  52

 MAXIMUM STEPSIZE WHICH MEETS STABILITY CRITERION OF THE ADVECTION TERM
 (FOR PURE FINITE-DIFFERENCE OPTION, MIXELM=0) 
 =  3.705    (WHEN MIN. R.F.=1)  AT K=   2, I=   1, J=  78


 TOTAL NUMBER OF POINT SOURCES/SINKS PRESENT IN THE FLOW MODEL =    62

 MAXIMUM STEPSIZE WHICH MEETS STABILITY CRITERION OF THE SINK & SOURCE TERM
 =  171.9    (WHEN MIN. R.F.=1)  AT K=   2, I=   1, J= 120

 MAXIMUM STEPSIZE WHICH MEETS STABILITY CRITERION OF THE DISPERSION TERM
 =  20.29    (WHEN MIN. R.F.=1)  AT K=   1, I=   1, J=  31


     1 CALLS TO GCG PACKAGE FOR TRANSPORT TIME STEP   1 IN FLOW TIME STEP 676 STRESS PERIOD   1
     6 TOTAL ITERATIONS

 NO OUTPUT CONTROL FOR STRESS PERIOD    1   TIME STEP 676
 
 SOLVING FOR HEAD 
 FLOW MODEL IS TRANSIENT
 FLOW MODEL CONTAINS CONSTANT-HEAD CELLS


 MAXIMUM STEPSIZE DURING WHICH ANY PARTICLE CANNOT MOVE MORE THAN ONE CELL
 =  5.762    (WHEN MIN. R.F.=1)  AT K=  28, I=   1, J=  52

 MAXIMUM STEPSIZE WHICH MEETS STABILITY CRITERION OF THE ADVECTION TERM
 (FOR PURE FINITE-DIFFERENCE OPTION, MIXELM=0) 
 =  3.835    (WHEN MIN. R.F.=1)  AT K=   2, I=   1, J=  78


 TOTAL NUMBER OF POINT SOURCES/SINKS PRESENT IN THE FLOW MODEL =    62

 MAXIMUM STEPSIZE WHICH MEETS STABILITY CRITERION OF THE SINK & SOURCE TERM
 =  173.7    (WHEN MIN. R.F.=1)  AT K=   2, I=   1, J= 120

 MAXIMUM STEPSIZE WHICH MEETS STABILITY CRITERION OF THE DISPERSION TERM
 =  20.29    (WHEN MIN. R.F.=1)  AT K=   1, I=   1, J=  31
     1 CALLS TO GCG PACKAGE FOR TRANSPORT TIME STEP   2 IN FLOW TIME STEP 676 STRESS PERIOD   1
     6 TOTAL ITERATIONS
 
 SOLVING FOR HEAD 
 FLOW MODEL IS TRANSIENT
 FLOW MODEL CONTAINS CONSTANT-HEAD CELLS


 MAXIMUM STEPSIZE DURING WHICH ANY PARTICLE CANNOT MOVE MORE THAN ONE CELL
 =  5.759    (WHEN MIN. R.F.=1)  AT K=  28, I=   1, J=  52

 MAXIMUM STEPSIZE WHICH MEETS STABILITY CRITERION OF THE ADVECTION TERM
 (FOR PURE FINITE-DIFFERENCE OPTION, MIXELM=0) 
 =  4.142    (WHEN MIN. R.F.=1)  AT K=   2, I=   1, J=  78


 TOTAL NUMBER OF POINT SOURCES/SINKS PRESENT IN THE FLOW MODEL =    62

 MAXIMUM STEPSIZE WHICH MEETS STABILITY CRITERION OF THE SINK & SOURCE TERM
 =  178.6    (WHEN MIN. R.F.=1)  AT K=   2, I=   1, J= 120

 MAXIMUM STEPSIZE WHICH MEETS STABILITY CRITERION OF THE DISPERSION TERM
 =  20.29    (WHEN MIN. R.F.=1)  AT K=   1, I=   1, J=  31
     1 CALLS TO GCG PACKAGE FOR TRANSPORT TIME STEP   3 IN FLOW TIME STEP 676 STRESS PERIOD   1
     6 TOTAL ITERATIONS
 
 SOLVING FOR HEAD 
 FLOW MODEL IS TRANSIENT
 FLOW MODEL CONTAINS CONSTANT-HEAD CELLS


 MAXIMUM STEPSIZE DURING WHICH ANY PARTICLE CANNOT MOVE MORE THAN ONE CELL
 =  5.755    (WHEN MIN. R.F.=1)  AT K=  28, I=   1, J=  52

 MAXIMUM STEPSIZE WHICH MEETS STABILITY CRITERION OF THE ADVECTION TERM
 (FOR PURE FINITE-DIFFERENCE OPTION, MIXELM=0) 
 =  4.120    (WHEN MIN. R.F.=1)  AT K=   2, I=   1, J=  77


 TOTAL NUMBER OF POINT SOURCES/SINKS PRESENT IN THE FLOW MODEL =    62

 MAXIMUM STEPSIZE WHICH MEETS STABILITY CRITERION OF THE SINK & SOURCE TERM
 =  186.3    (WHEN MIN. R.F.=1)  AT K=   2, I=   1, J= 120

 MAXIMUM STEPSIZE WHICH MEETS STABILITY CRITERION OF THE DISPERSION TERM
 =  20.29    (WHEN MIN. R.F.=1)  AT K=   1, I=   1, J=  31
     1 CALLS TO GCG PACKAGE FOR TRANSPORT TIME STEP   4 IN FLOW TIME STEP 676 STRESS PERIOD   1
     5 TOTAL ITERATIONS
  MAXIMUM CONCENTRATION CHANGES FOR EACH ITERATION:
  MAX. CHANGE LAYER,ROW,COL MAX. CHANGE LAYER,ROW,COL MAX. CHANGE LAYER,ROW,COL MAX. CHANGE LAYER,ROW,COL MAX. CHANGE LAYER,ROW,COL
 ------------------------------------------------------------------------------------------------------------------------------------
   0.1688E-01 (  2,  1, 79)  0.5599E-03 (  2,  1, 77)  0.1590E-04 (  3,  1, 77)  0.4278E-06 (  3,  1, 32)  0.1529E-07 (  3,  1, 88)


                                          ================================================
                                                         FROM TIME =   6760.0     TO    6770.0    

 
 SOLVING FOR HEAD 
 FLOW MODEL IS TRANSIENT
 FLOW MODEL CONTAINS CONSTANT-HEAD CELLS


 MAXIMUM STEPSIZE DURING WHICH ANY PARTICLE CANNOT MOVE MORE THAN ONE CELL
 =  5.758    (WHEN MIN. R.F.=1)  AT K=  28, I=   1, J=  52

 MAXIMUM STEPSIZE WHICH MEETS STABILITY CRITERION OF THE ADVECTION TERM
 (FOR PURE FINITE-DIFFERENCE OPTION, MIXELM=0) 
 =  4.002    (WHEN MIN. R.F.=1)  AT K=   2, I=   1, J=  77


 TOTAL NUMBER OF POINT SOURCES/SINKS PRESENT IN THE FLOW MODEL =    62

 MAXIMUM STEPSIZE WHICH MEETS STABILITY CRITERION OF THE SINK & SOURCE TERM
 =  195.2    (WHEN MIN. R.F.=1)  AT K=   2, I=   1, J= 120

 MAXIMUM STEPSIZE WHICH MEETS STABILITY CRITERION OF THE DISPERSION TERM
 =  20.29    (WHEN MIN. R.F.=1)  AT K=   1, I=   1, J=  31


     1 CALLS TO GCG PACKAGE FOR TRANSPORT TIME STEP   1 IN FLOW TIME STEP 677 STRESS PERIOD   1
     6 TOTAL ITERATIONS

 NO OUTPUT CONTROL FOR STRESS PERIOD    1   TIME STEP 677
 
 SOLVING FOR HEAD 
 FLOW MODEL IS TRANSIENT
 FLOW MODEL CONTAINS CONSTANT-HEAD CELLS


 MAXIMUM STEPSIZE DURING WHICH ANY PARTICLE CANNOT MOVE MORE THAN ONE CELL
 =  5.754    (WHEN MIN. R.F.=1)  AT K=  28, I=   1, J=  52

 MAXIMUM STEPSIZE WHICH MEETS STABILITY CRITERION OF THE ADVECTION TERM
 (FOR PURE FINITE-DIFFERENCE OPTION, MIXELM=0) 
 =  3.881    (WHEN MIN. R.F.=1)  AT K=   2, I=   1, J=  77


 TOTAL NUMBER OF POINT SOURCES/SINKS PRESENT IN THE FLOW MODEL =    62

 MAXIMUM STEPSIZE WHICH MEETS STABILITY CRITERION OF THE SINK & SOURCE TERM
 =  201.3    (WHEN MIN. R.F.=1)  AT K=   2, I=   1, J= 120

 MAXIMUM STEPSIZE WHICH MEETS STABILITY CRITERION OF THE DISPERSION TERM
 =  20.29    (WHEN MIN. R.F.=1)  AT K=   1, I=   1, J=  31
     1 CALLS TO GCG PACKAGE FOR TRANSPORT TIME STEP   2 IN FLOW TIME STEP 677 STRESS PERIOD   1
     6 TOTAL ITERATIONS
 
 SOLVING FOR HEAD 
 FLOW MODEL IS TRANSIENT
 FLOW MODEL CONTAINS CONSTANT-HEAD CELLS


 MAXIMUM STEPSIZE DURING WHICH ANY PARTICLE CANNOT MOVE MORE THAN ONE CELL
 =  5.694    (WHEN MIN. R.F.=1)  AT K=   4, I=   1, J=  47

 MAXIMUM STEPSIZE WHICH MEETS STABILITY CRITERION OF THE ADVECTION TERM
 (FOR PURE FINITE-DIFFERENCE OPTION, MIXELM=0) 
 =  3.894    (WHEN MIN. R.F.=1)  AT K=   2, I=   1, J=  77


 TOTAL NUMBER OF POINT SOURCES/SINKS PRESENT IN THE FLOW MODEL =    62

 MAXIMUM STEPSIZE WHICH MEETS STABILITY CRITERION OF THE SINK & SOURCE TERM
 =  216.0    (WHEN MIN. R.F.=1)  AT K=   2, I=   1, J= 120

 MAXIMUM STEPSIZE WHICH MEETS STABILITY CRITERION OF THE DISPERSION TERM
 =  20.29    (WHEN MIN. R.F.=1)  AT K=   1, I=   1, J=  31
     1 CALLS TO GCG PACKAGE FOR TRANSPORT TIME STEP   3 IN FLOW TIME STEP 677 STRESS PERIOD   1
     6 TOTAL ITERATIONS
 
 SOLVING FOR HEAD 
 FLOW MODEL IS TRANSIENT
 FLOW MODEL CONTAINS CONSTANT-HEAD CELLS


 MAXIMUM STEPSIZE DURING WHICH ANY PARTICLE CANNOT MOVE MORE THAN ONE CELL
 =  5.419    (WHEN MIN. R.F.=1)  AT K=   4, I=   1, J=  47

 MAXIMUM STEPSIZE WHICH MEETS STABILITY CRITERION OF THE ADVECTION TERM
 (FOR PURE FINITE-DIFFERENCE OPTION, MIXELM=0) 
 =  4.019    (WHEN MIN. R.F.=1)  AT K=   2, I=   1, J=  77


 TOTAL NUMBER OF POINT SOURCES/SINKS PRESENT IN THE FLOW MODEL =    62

 MAXIMUM STEPSIZE WHICH MEETS STABILITY CRITERION OF THE SINK & SOURCE TERM
 =  230.4    (WHEN MIN. R.F.=1)  AT K=   2, I=   1, J= 120

 MAXIMUM STEPSIZE WHICH MEETS STABILITY CRITERION OF THE DISPERSION TERM
 =  20.29    (WHEN MIN. R.F.=1)  AT K=   1, I=   1, J=  31
     1 CALLS TO GCG PACKAGE FOR TRANSPORT TIME STEP   4 IN FLOW TIME STEP 677 STRESS PERIOD   1
     5 TOTAL ITERATIONS
  MAXIMUM CONCENTRATION CHANGES FOR EACH ITERATION:
  MAX. CHANGE LAYER,ROW,COL MAX. CHANGE LAYER,ROW,COL MAX. CHANGE LAYER,ROW,COL MAX. CHANGE LAYER,ROW,COL MAX. CHANGE LAYER,ROW,COL
 ------------------------------------------------------------------------------------------------------------------------------------
   0.1232E-01 (  2,  1, 78)  0.1865E-03 (  2,  1, 78)  0.4244E-05 (  2,  1, 79)  0.1080E-06 (  3,  1, 79)  0.1573E-08 (  4,  1, 78)


                                          ================================================
                                                         FROM TIME =   6770.0     TO    6780.0    

 
 SOLVING FOR HEAD 
 FLOW MODEL IS TRANSIENT
 FLOW MODEL CONTAINS CONSTANT-HEAD CELLS


 MAXIMUM STEPSIZE DURING WHICH ANY PARTICLE CANNOT MOVE MORE THAN ONE CELL
 =  5.342    (WHEN MIN. R.F.=1)  AT K=   4, I=   1, J=  47

 MAXIMUM STEPSIZE WHICH MEETS STABILITY CRITERION OF THE ADVECTION TERM
 (FOR PURE FINITE-DIFFERENCE OPTION, MIXELM=0) 
 =  4.107    (WHEN MIN. R.F.=1)  AT K=   2, I=   1, J=  77


 TOTAL NUMBER OF POINT SOURCES/SINKS PRESENT IN THE FLOW MODEL =    62

 MAXIMUM STEPSIZE WHICH MEETS STABILITY CRITERION OF THE SINK & SOURCE TERM
 =  238.7    (WHEN MIN. R.F.=1)  AT K=   2, I=   1, J= 120

 MAXIMUM STEPSIZE WHICH MEETS STABILITY CRITERION OF THE DISPERSION TERM
 =  20.29    (WHEN MIN. R.F.=1)  AT K=   1, I=   1, J=  31


     1 CALLS TO GCG PACKAGE FOR TRANSPORT TIME STEP   1 IN FLOW TIME STEP 678 STRESS PERIOD   1
     6 TOTAL ITERATIONS

 NO OUTPUT CONTROL FOR STRESS PERIOD    1   TIME STEP 678
 
 SOLVING FOR HEAD 
 FLOW MODEL IS TRANSIENT
 FLOW MODEL CONTAINS CONSTANT-HEAD CELLS


 MAXIMUM STEPSIZE DURING WHICH ANY PARTICLE CANNOT MOVE MORE THAN ONE CELL
 =  5.163    (WHEN MIN. R.F.=1)  AT K=   4, I=   1, J=  47

 MAXIMUM STEPSIZE WHICH MEETS STABILITY CRITERION OF THE ADVECTION TERM
 (FOR PURE FINITE-DIFFERENCE OPTION, MIXELM=0) 
 =  4.061    (WHEN MIN. R.F.=1)  AT K=   2, I=   1, J=  40


 TOTAL NUMBER OF POINT SOURCES/SINKS PRESENT IN THE FLOW MODEL =    62

 MAXIMUM STEPSIZE WHICH MEETS STABILITY CRITERION OF THE SINK & SOURCE TERM
 =  240.3    (WHEN MIN. R.F.=1)  AT K=   2, I=   1, J= 120

 MAXIMUM STEPSIZE WHICH MEETS STABILITY CRITERION OF THE DISPERSION TERM
 =  20.29    (WHEN MIN. R.F.=1)  AT K=   1, I=   1, J=  31
     1 CALLS TO GCG PACKAGE FOR TRANSPORT TIME STEP   2 IN FLOW TIME STEP 678 STRESS PERIOD   1
     6 TOTAL ITERATIONS
 
 SOLVING FOR HEAD 
 FLOW MODEL IS TRANSIENT
 FLOW MODEL CONTAINS CONSTANT-HEAD CELLS


 MAXIMUM STEPSIZE DURING WHICH ANY PARTICLE CANNOT MOVE MORE THAN ONE CELL
 =  5.052    (WHEN MIN. R.F.=1)  AT K=   4, I=   1, J=  47

 MAXIMUM STEPSIZE WHICH MEETS STABILITY CRITERION OF THE ADVECTION TERM
 (FOR PURE FINITE-DIFFERENCE OPTION, MIXELM=0) 
 =  4.201    (WHEN MIN. R.F.=1)  AT K=   2, I=   1, J=  40


 TOTAL NUMBER OF POINT SOURCES/SINKS PRESENT IN THE FLOW MODEL =    62

 MAXIMUM STEPSIZE WHICH MEETS STABILITY CRITERION OF THE SINK & SOURCE TERM
 =  257.2    (WHEN MIN. R.F.=1)  AT K=   2, I=   1, J= 120

 MAXIMUM STEPSIZE WHICH MEETS STABILITY CRITERION OF THE DISPERSION TERM
 =  20.29    (WHEN MIN. R.F.=1)  AT K=   1, I=   1, J=  31
     1 CALLS TO GCG PACKAGE FOR TRANSPORT TIME STEP   3 IN FLOW TIME STEP 678 STRESS PERIOD   1
     6 TOTAL ITERATIONS
 
 SOLVING FOR HEAD 
 FLOW MODEL IS TRANSIENT
 FLOW MODEL CONTAINS CONSTANT-HEAD CELLS


 MAXIMUM STEPSIZE DURING WHICH ANY PARTICLE CANNOT MOVE MORE THAN ONE CELL
 =  5.012    (WHEN MIN. R.F.=1)  AT K=   4, I=   1, J=  47

 MAXIMUM STEPSIZE WHICH MEETS STABILITY CRITERION OF THE ADVECTION TERM
 (FOR PURE FINITE-DIFFERENCE OPTION, MIXELM=0) 
 =  4.074    (WHEN MIN. R.F.=1)  AT K=   2, I=   1, J=  41


 TOTAL NUMBER OF POINT SOURCES/SINKS PRESENT IN THE FLOW MODEL =    62

 MAXIMUM STEPSIZE WHICH MEETS STABILITY CRITERION OF THE SINK & SOURCE TERM
 =  281.6    (WHEN MIN. R.F.=1)  AT K=   2, I=   1, J= 120

 MAXIMUM STEPSIZE WHICH MEETS STABILITY CRITERION OF THE DISPERSION TERM
 =  20.29    (WHEN MIN. R.F.=1)  AT K=   1, I=   1, J=  31
     1 CALLS TO GCG PACKAGE FOR TRANSPORT TIME STEP   4 IN FLOW TIME STEP 678 STRESS PERIOD   1
     4 TOTAL ITERATIONS
  MAXIMUM CONCENTRATION CHANGES FOR EACH ITERATION:
  MAX. CHANGE LAYER,ROW,COL MAX. CHANGE LAYER,ROW,COL MAX. CHANGE LAYER,ROW,COL MAX. CHANGE LAYER,ROW,COL MAX. CHANGE LAYER,ROW,COL
 ------------------------------------------------------------------------------------------------------------------------------------
   0.9356E-02 (  2,  1, 39)  0.1310E-03 (  2,  1, 76)  0.2005E-05 (  2,  1, 78)  0.4115E-07 (  3,  1, 82)


                                          ================================================
                                                         FROM TIME =   6780.0     TO    6790.0    

 
 SOLVING FOR HEAD 
 FLOW MODEL IS TRANSIENT
 FLOW MODEL CONTAINS CONSTANT-HEAD CELLS


 MAXIMUM STEPSIZE DURING WHICH ANY PARTICLE CANNOT MOVE MORE THAN ONE CELL
 =  5.013    (WHEN MIN. R.F.=1)  AT K=   4, I=   1, J=  47

 MAXIMUM STEPSIZE WHICH MEETS STABILITY CRITERION OF THE ADVECTION TERM
 (FOR PURE FINITE-DIFFERENCE OPTION, MIXELM=0) 
 =  3.994    (WHEN MIN. R.F.=1)  AT K=   2, I=   1, J=  41


 TOTAL NUMBER OF POINT SOURCES/SINKS PRESENT IN THE FLOW MODEL =    62

 MAXIMUM STEPSIZE WHICH MEETS STABILITY CRITERION OF THE SINK & SOURCE TERM
 =  301.4    (WHEN MIN. R.F.=1)  AT K=   2, I=   1, J= 120

 MAXIMUM STEPSIZE WHICH MEETS STABILITY CRITERION OF THE DISPERSION TERM
 =  20.29    (WHEN MIN. R.F.=1)  AT K=   1, I=   1, J=  31


     1 CALLS TO GCG PACKAGE FOR TRANSPORT TIME STEP   1 IN FLOW TIME STEP 679 STRESS PERIOD   1
     6 TOTAL ITERATIONS

 NO OUTPUT CONTROL FOR STRESS PERIOD    1   TIME STEP 679
 
 SOLVING FOR HEAD 
 FLOW MODEL IS TRANSIENT
 FLOW MODEL CONTAINS CONSTANT-HEAD CELLS


 MAXIMUM STEPSIZE DURING WHICH ANY PARTICLE CANNOT MOVE MORE THAN ONE CELL
 =  5.045    (WHEN MIN. R.F.=1)  AT K=   4, I=   1, J=  47

 MAXIMUM STEPSIZE WHICH MEETS STABILITY CRITERION OF THE ADVECTION TERM
 (FOR PURE FINITE-DIFFERENCE OPTION, MIXELM=0) 
 =  3.820    (WHEN MIN. R.F.=1)  AT K=   2, I=   1, J=  41


 TOTAL NUMBER OF POINT SOURCES/SINKS PRESENT IN THE FLOW MODEL =    62

 MAXIMUM STEPSIZE WHICH MEETS STABILITY CRITERION OF THE SINK & SOURCE TERM
 =  309.4    (WHEN MIN. R.F.=1)  AT K=   2, I=   1, J= 120

 MAXIMUM STEPSIZE WHICH MEETS STABILITY CRITERION OF THE DISPERSION TERM
 =  20.29    (WHEN MIN. R.F.=1)  AT K=   1, I=   1, J=  31
     1 CALLS TO GCG PACKAGE FOR TRANSPORT TIME STEP   2 IN FLOW TIME STEP 679 STRESS PERIOD   1
     6 TOTAL ITERATIONS
 
 SOLVING FOR HEAD 
 FLOW MODEL IS TRANSIENT
 FLOW MODEL CONTAINS CONSTANT-HEAD CELLS


 MAXIMUM STEPSIZE DURING WHICH ANY PARTICLE CANNOT MOVE MORE THAN ONE CELL
 =  5.119    (WHEN MIN. R.F.=1)  AT K=   5, I=   1, J=  47

 MAXIMUM STEPSIZE WHICH MEETS STABILITY CRITERION OF THE ADVECTION TERM
 (FOR PURE FINITE-DIFFERENCE OPTION, MIXELM=0) 
 =  3.812    (WHEN MIN. R.F.=1)  AT K=   2, I=   1, J=  41


 TOTAL NUMBER OF POINT SOURCES/SINKS PRESENT IN THE FLOW MODEL =    62

 MAXIMUM STEPSIZE WHICH MEETS STABILITY CRITERION OF THE SINK & SOURCE TERM
 =  335.5    (WHEN MIN. R.F.=1)  AT K=   2, I=   1, J= 120

 MAXIMUM STEPSIZE WHICH MEETS STABILITY CRITERION OF THE DISPERSION TERM
 =  20.29    (WHEN MIN. R.F.=1)  AT K=   1, I=   1, J=  31
     1 CALLS TO GCG PACKAGE FOR TRANSPORT TIME STEP   3 IN FLOW TIME STEP 679 STRESS PERIOD   1
     6 TOTAL ITERATIONS
 
 SOLVING FOR HEAD 
 FLOW MODEL IS TRANSIENT
 FLOW MODEL CONTAINS CONSTANT-HEAD CELLS


 MAXIMUM STEPSIZE DURING WHICH ANY PARTICLE CANNOT MOVE MORE THAN ONE CELL
 =  5.175    (WHEN MIN. R.F.=1)  AT K=   5, I=   1, J=  47

 MAXIMUM STEPSIZE WHICH MEETS STABILITY CRITERION OF THE ADVECTION TERM
 (FOR PURE FINITE-DIFFERENCE OPTION, MIXELM=0) 
 =  3.964    (WHEN MIN. R.F.=1)  AT K=   2, I=   1, J=  41


 TOTAL NUMBER OF POINT SOURCES/SINKS PRESENT IN THE FLOW MODEL =    62

 MAXIMUM STEPSIZE WHICH MEETS STABILITY CRITERION OF THE SINK & SOURCE TERM
 =  368.2    (WHEN MIN. R.F.=1)  AT K=   2, I=   1, J= 120

 MAXIMUM STEPSIZE WHICH MEETS STABILITY CRITERION OF THE DISPERSION TERM
 =  20.29    (WHEN MIN. R.F.=1)  AT K=   1, I=   1, J=  31
     1 CALLS TO GCG PACKAGE FOR TRANSPORT TIME STEP   4 IN FLOW TIME STEP 679 STRESS PERIOD   1
     5 TOTAL ITERATIONS
  MAXIMUM CONCENTRATION CHANGES FOR EACH ITERATION:
  MAX. CHANGE LAYER,ROW,COL MAX. CHANGE LAYER,ROW,COL MAX. CHANGE LAYER,ROW,COL MAX. CHANGE LAYER,ROW,COL MAX. CHANGE LAYER,ROW,COL
 ------------------------------------------------------------------------------------------------------------------------------------
   0.1276E-01 (  2,  1, 77)  0.1790E-03 (  2,  1, 42)  0.5811E-05 (  3,  1, 42)  0.1307E-06 (  3,  1, 78)  0.2400E-08 (  4,  1, 81)


                                          ================================================
                                                         FROM TIME =   6790.0     TO    6800.0    

 
 SOLVING FOR HEAD 
 FLOW MODEL IS TRANSIENT
 FLOW MODEL CONTAINS CONSTANT-HEAD CELLS


 MAXIMUM STEPSIZE DURING WHICH ANY PARTICLE CANNOT MOVE MORE THAN ONE CELL
 =  5.208    (WHEN MIN. R.F.=1)  AT K=   5, I=   1, J=  47

 MAXIMUM STEPSIZE WHICH MEETS STABILITY CRITERION OF THE ADVECTION TERM
 (FOR PURE FINITE-DIFFERENCE OPTION, MIXELM=0) 
 =  4.088    (WHEN MIN. R.F.=1)  AT K=   2, I=   1, J=  41


 TOTAL NUMBER OF POINT SOURCES/SINKS PRESENT IN THE FLOW MODEL =    62

 MAXIMUM STEPSIZE WHICH MEETS STABILITY CRITERION OF THE SINK & SOURCE TERM
 =  404.5    (WHEN MIN. R.F.=1)  AT K=   2, I=   1, J= 120

 MAXIMUM STEPSIZE WHICH MEETS STABILITY CRITERION OF THE DISPERSION TERM
 =  20.29    (WHEN MIN. R.F.=1)  AT K=   1, I=   1, J=  31


     1 CALLS TO GCG PACKAGE FOR TRANSPORT TIME STEP   1 IN FLOW TIME STEP 680 STRESS PERIOD   1
     6 TOTAL ITERATIONS

 NO OUTPUT CONTROL FOR STRESS PERIOD    1   TIME STEP 680
 
 SOLVING FOR HEAD 
 FLOW MODEL IS TRANSIENT
 FLOW MODEL CONTAINS CONSTANT-HEAD CELLS


 MAXIMUM STEPSIZE DURING WHICH ANY PARTICLE CANNOT MOVE MORE THAN ONE CELL
 =  5.316    (WHEN MIN. R.F.=1)  AT K=   5, I=   1, J=  47

 MAXIMUM STEPSIZE WHICH MEETS STABILITY CRITERION OF THE ADVECTION TERM
 (FOR PURE FINITE-DIFFERENCE OPTION, MIXELM=0) 
 =  3.879    (WHEN MIN. R.F.=1)  AT K=   2, I=   1, J=  42


 TOTAL NUMBER OF POINT SOURCES/SINKS PRESENT IN THE FLOW MODEL =    62

 MAXIMUM STEPSIZE WHICH MEETS STABILITY CRITERION OF THE SINK & SOURCE TERM
 =  416.0    (WHEN MIN. R.F.=1)  AT K=   2, I=   1, J= 120

 MAXIMUM STEPSIZE WHICH MEETS STABILITY CRITERION OF THE DISPERSION TERM
 =  20.29    (WHEN MIN. R.F.=1)  AT K=   1, I=   1, J=  31
     1 CALLS TO GCG PACKAGE FOR TRANSPORT TIME STEP   2 IN FLOW TIME STEP 680 STRESS PERIOD   1
     6 TOTAL ITERATIONS
 
 SOLVING FOR HEAD 
 FLOW MODEL IS TRANSIENT
 FLOW MODEL CONTAINS CONSTANT-HEAD CELLS


 MAXIMUM STEPSIZE DURING WHICH ANY PARTICLE CANNOT MOVE MORE THAN ONE CELL
 =  5.468    (WHEN MIN. R.F.=1)  AT K=   5, I=   1, J=  47

 MAXIMUM STEPSIZE WHICH MEETS STABILITY CRITERION OF THE ADVECTION TERM
 (FOR PURE FINITE-DIFFERENCE OPTION, MIXELM=0) 
 =  3.741    (WHEN MIN. R.F.=1)  AT K=   2, I=   1, J=  42


 TOTAL NUMBER OF POINT SOURCES/SINKS PRESENT IN THE FLOW MODEL =    62

 MAXIMUM STEPSIZE WHICH MEETS STABILITY CRITERION OF THE SINK & SOURCE TERM
 =  466.5    (WHEN MIN. R.F.=1)  AT K=   2, I=   1, J= 120

 MAXIMUM STEPSIZE WHICH MEETS STABILITY CRITERION OF THE DISPERSION TERM
 =  20.29    (WHEN MIN. R.F.=1)  AT K=   1, I=   1, J=  31
     1 CALLS TO GCG PACKAGE FOR TRANSPORT TIME STEP   3 IN FLOW TIME STEP 680 STRESS PERIOD   1
     6 TOTAL ITERATIONS
 
 SOLVING FOR HEAD 
 FLOW MODEL IS TRANSIENT
 FLOW MODEL CONTAINS CONSTANT-HEAD CELLS


 MAXIMUM STEPSIZE DURING WHICH ANY PARTICLE CANNOT MOVE MORE THAN ONE CELL
 =  5.590    (WHEN MIN. R.F.=1)  AT K=   6, I=   1, J=  47

 MAXIMUM STEPSIZE WHICH MEETS STABILITY CRITERION OF THE ADVECTION TERM
 (FOR PURE FINITE-DIFFERENCE OPTION, MIXELM=0) 
 =  3.759    (WHEN MIN. R.F.=1)  AT K=   2, I=   1, J=  42


 TOTAL NUMBER OF POINT SOURCES/SINKS PRESENT IN THE FLOW MODEL =    62

 MAXIMUM STEPSIZE WHICH MEETS STABILITY CRITERION OF THE SINK & SOURCE TERM
 =  525.0    (WHEN MIN. R.F.=1)  AT K=   2, I=   1, J= 120

 MAXIMUM STEPSIZE WHICH MEETS STABILITY CRITERION OF THE DISPERSION TERM
 =  20.29    (WHEN MIN. R.F.=1)  AT K=   1, I=   1, J=  31
     1 CALLS TO GCG PACKAGE FOR TRANSPORT TIME STEP   4 IN FLOW TIME STEP 680 STRESS PERIOD   1
     5 TOTAL ITERATIONS
  MAXIMUM CONCENTRATION CHANGES FOR EACH ITERATION:
  MAX. CHANGE LAYER,ROW,COL MAX. CHANGE LAYER,ROW,COL MAX. CHANGE LAYER,ROW,COL MAX. CHANGE LAYER,ROW,COL MAX. CHANGE LAYER,ROW,COL
 ------------------------------------------------------------------------------------------------------------------------------------
   0.1263E-01 (  2,  1, 83)  0.1930E-03 (  3,  1, 78)  0.4314E-05 (  3,  1, 43)  0.1614E-06 (  3,  1, 45)  0.2704E-08 (  4,  1, 45)


                                          ================================================
                                                         FROM TIME =   6800.0     TO    6810.0    

 
 SOLVING FOR HEAD 
 FLOW MODEL IS TRANSIENT
 FLOW MODEL CONTAINS CONSTANT-HEAD CELLS


 MAXIMUM STEPSIZE DURING WHICH ANY PARTICLE CANNOT MOVE MORE THAN ONE CELL
 =  5.638    (WHEN MIN. R.F.=1)  AT K=   6, I=   1, J=  47

 MAXIMUM STEPSIZE WHICH MEETS STABILITY CRITERION OF THE ADVECTION TERM
 (FOR PURE FINITE-DIFFERENCE OPTION, MIXELM=0) 
 =  3.795    (WHEN MIN. R.F.=1)  AT K=   2, I=   1, J=  42


 TOTAL NUMBER OF POINT SOURCES/SINKS PRESENT IN THE FLOW MODEL =    62

 MAXIMUM STEPSIZE WHICH MEETS STABILITY CRITERION OF THE SINK & SOURCE TERM
 =  642.8    (WHEN MIN. R.F.=1)  AT K=   2, I=   1, J= 120

 MAXIMUM STEPSIZE WHICH MEETS STABILITY CRITERION OF THE DISPERSION TERM
 =  20.29    (WHEN MIN. R.F.=1)  AT K=   1, I=   1, J=  31


     1 CALLS TO GCG PACKAGE FOR TRANSPORT TIME STEP   1 IN FLOW TIME STEP 681 STRESS PERIOD   1
     6 TOTAL ITERATIONS

 NO OUTPUT CONTROL FOR STRESS PERIOD    1   TIME STEP 681
 
 SOLVING FOR HEAD 
 FLOW MODEL IS TRANSIENT
 FLOW MODEL CONTAINS CONSTANT-HEAD CELLS


 MAXIMUM STEPSIZE DURING WHICH ANY PARTICLE CANNOT MOVE MORE THAN ONE CELL
 =  5.417    (WHEN MIN. R.F.=1)  AT K=   4, I=   1, J=  74

 MAXIMUM STEPSIZE WHICH MEETS STABILITY CRITERION OF THE ADVECTION TERM
 (FOR PURE FINITE-DIFFERENCE OPTION, MIXELM=0) 
 =  3.997    (WHEN MIN. R.F.=1)  AT K=   2, I=   1, J=  42


 TOTAL NUMBER OF POINT SOURCES/SINKS PRESENT IN THE FLOW MODEL =    62

 MAXIMUM STEPSIZE WHICH MEETS STABILITY CRITERION OF THE SINK & SOURCE TERM
 =  657.0    (WHEN MIN. R.F.=1)  AT K=   2, I=   1, J= 120

 MAXIMUM STEPSIZE WHICH MEETS STABILITY CRITERION OF THE DISPERSION TERM
 =  20.29    (WHEN MIN. R.F.=1)  AT K=   1, I=   1, J=  31
     1 CALLS TO GCG PACKAGE FOR TRANSPORT TIME STEP   2 IN FLOW TIME STEP 681 STRESS PERIOD   1
     6 TOTAL ITERATIONS
 
 SOLVING FOR HEAD 
 FLOW MODEL IS TRANSIENT
 FLOW MODEL CONTAINS CONSTANT-HEAD CELLS


 MAXIMUM STEPSIZE DURING WHICH ANY PARTICLE CANNOT MOVE MORE THAN ONE CELL
 =  5.241    (WHEN MIN. R.F.=1)  AT K=   4, I=   1, J=  74

 MAXIMUM STEPSIZE WHICH MEETS STABILITY CRITERION OF THE ADVECTION TERM
 (FOR PURE FINITE-DIFFERENCE OPTION, MIXELM=0) 
 =  3.920    (WHEN MIN. R.F.=1)  AT K=   2, I=   1, J=  81


 TOTAL NUMBER OF POINT SOURCES/SINKS PRESENT IN THE FLOW MODEL =    62

 MAXIMUM STEPSIZE WHICH MEETS STABILITY CRITERION OF THE SINK & SOURCE TERM
 =  841.5    (WHEN MIN. R.F.=1)  AT K=   2, I=   1, J= 120

 MAXIMUM STEPSIZE WHICH MEETS STABILITY CRITERION OF THE DISPERSION TERM
 =  20.29    (WHEN MIN. R.F.=1)  AT K=   1, I=   1, J=  31
     1 CALLS TO GCG PACKAGE FOR TRANSPORT TIME STEP   3 IN FLOW TIME STEP 681 STRESS PERIOD   1
     6 TOTAL ITERATIONS
 
 SOLVING FOR HEAD 
 FLOW MODEL IS TRANSIENT
 FLOW MODEL CONTAINS CONSTANT-HEAD CELLS


 MAXIMUM STEPSIZE DURING WHICH ANY PARTICLE CANNOT MOVE MORE THAN ONE CELL
 =  5.107    (WHEN MIN. R.F.=1)  AT K=   4, I=   1, J=  74

 MAXIMUM STEPSIZE WHICH MEETS STABILITY CRITERION OF THE ADVECTION TERM
 (FOR PURE FINITE-DIFFERENCE OPTION, MIXELM=0) 
 =  3.859    (WHEN MIN. R.F.=1)  AT K=   2, I=   1, J=  43


 TOTAL NUMBER OF POINT SOURCES/SINKS PRESENT IN THE FLOW MODEL =    62

 MAXIMUM STEPSIZE WHICH MEETS STABILITY CRITERION OF THE SINK & SOURCE TERM
 =  1068.    (WHEN MIN. R.F.=1)  AT K=   2, I=   1, J= 120

 MAXIMUM STEPSIZE WHICH MEETS STABILITY CRITERION OF THE DISPERSION TERM
 =  20.29    (WHEN MIN. R.F.=1)  AT K=   1, I=   1, J=  31
     1 CALLS TO GCG PACKAGE FOR TRANSPORT TIME STEP   4 IN FLOW TIME STEP 681 STRESS PERIOD   1
     5 TOTAL ITERATIONS
  MAXIMUM CONCENTRATION CHANGES FOR EACH ITERATION:
  MAX. CHANGE LAYER,ROW,COL MAX. CHANGE LAYER,ROW,COL MAX. CHANGE LAYER,ROW,COL MAX. CHANGE LAYER,ROW,COL MAX. CHANGE LAYER,ROW,COL
 ------------------------------------------------------------------------------------------------------------------------------------
   0.1711E-01 (  2,  1, 82)  0.2927E-03 (  2,  1, 82)  0.1015E-04 (  3,  1, 80)  0.2720E-06 (  4,  1, 80)  0.7105E-08 (  4,  1, 79)


                                          ================================================
                                                         FROM TIME =   6810.0     TO    6820.0    

 
 SOLVING FOR HEAD 
 FLOW MODEL IS TRANSIENT
 FLOW MODEL CONTAINS CONSTANT-HEAD CELLS


 MAXIMUM STEPSIZE DURING WHICH ANY PARTICLE CANNOT MOVE MORE THAN ONE CELL
 =  5.063    (WHEN MIN. R.F.=1)  AT K=   4, I=   1, J=  74

 MAXIMUM STEPSIZE WHICH MEETS STABILITY CRITERION OF THE ADVECTION TERM
 (FOR PURE FINITE-DIFFERENCE OPTION, MIXELM=0) 
 =  3.820    (WHEN MIN. R.F.=1)  AT K=   2, I=   1, J=  43


 TOTAL NUMBER OF POINT SOURCES/SINKS PRESENT IN THE FLOW MODEL =    62

 MAXIMUM STEPSIZE WHICH MEETS STABILITY CRITERION OF THE SINK & SOURCE TERM
 =  1285.    (WHEN MIN. R.F.=1)  AT K=   2, I=   1, J= 120

 MAXIMUM STEPSIZE WHICH MEETS STABILITY CRITERION OF THE DISPERSION TERM
 =  20.29    (WHEN MIN. R.F.=1)  AT K=   1, I=   1, J=  31


     1 CALLS TO GCG PACKAGE FOR TRANSPORT TIME STEP   1 IN FLOW TIME STEP 682 STRESS PERIOD   1
     6 TOTAL ITERATIONS

 NO OUTPUT CONTROL FOR STRESS PERIOD    1   TIME STEP 682
 
 SOLVING FOR HEAD 
 FLOW MODEL IS TRANSIENT
 FLOW MODEL CONTAINS CONSTANT-HEAD CELLS


 MAXIMUM STEPSIZE DURING WHICH ANY PARTICLE CANNOT MOVE MORE THAN ONE CELL
 =  4.999    (WHEN MIN. R.F.=1)  AT K=   4, I=   1, J=  74

 MAXIMUM STEPSIZE WHICH MEETS STABILITY CRITERION OF THE ADVECTION TERM
 (FOR PURE FINITE-DIFFERENCE OPTION, MIXELM=0) 
 =  3.809    (WHEN MIN. R.F.=1)  AT K=   2, I=   1, J=  80


 TOTAL NUMBER OF POINT SOURCES/SINKS PRESENT IN THE FLOW MODEL =    62

 MAXIMUM STEPSIZE WHICH MEETS STABILITY CRITERION OF THE SINK & SOURCE TERM
 =  1346.    (WHEN MIN. R.F.=1)  AT K=   2, I=   1, J= 120

 MAXIMUM STEPSIZE WHICH MEETS STABILITY CRITERION OF THE DISPERSION TERM
 =  20.29    (WHEN MIN. R.F.=1)  AT K=   1, I=   1, J=  31
     1 CALLS TO GCG PACKAGE FOR TRANSPORT TIME STEP   2 IN FLOW TIME STEP 682 STRESS PERIOD   1
     6 TOTAL ITERATIONS
 
 SOLVING FOR HEAD 
 FLOW MODEL IS TRANSIENT
 FLOW MODEL CONTAINS CONSTANT-HEAD CELLS


 MAXIMUM STEPSIZE DURING WHICH ANY PARTICLE CANNOT MOVE MORE THAN ONE CELL
 =  4.978    (WHEN MIN. R.F.=1)  AT K=   4, I=   1, J=  74

 MAXIMUM STEPSIZE WHICH MEETS STABILITY CRITERION OF THE ADVECTION TERM
 (FOR PURE FINITE-DIFFERENCE OPTION, MIXELM=0) 
 =  3.645    (WHEN MIN. R.F.=1)  AT K=   2, I=   1, J=  80


 TOTAL NUMBER OF POINT SOURCES/SINKS PRESENT IN THE FLOW MODEL =    62

 MAXIMUM STEPSIZE WHICH MEETS STABILITY CRITERION OF THE SINK & SOURCE TERM
 =  1990.    (WHEN MIN. R.F.=1)  AT K=   2, I=   1, J= 120

 MAXIMUM STEPSIZE WHICH MEETS STABILITY CRITERION OF THE DISPERSION TERM
 =  20.29    (WHEN MIN. R.F.=1)  AT K=   1, I=   1, J=  31
     1 CALLS TO GCG PACKAGE FOR TRANSPORT TIME STEP   3 IN FLOW TIME STEP 682 STRESS PERIOD   1
     6 TOTAL ITERATIONS
 
 SOLVING FOR HEAD 
 FLOW MODEL IS TRANSIENT
 FLOW MODEL CONTAINS CONSTANT-HEAD CELLS


 MAXIMUM STEPSIZE DURING WHICH ANY PARTICLE CANNOT MOVE MORE THAN ONE CELL
 =  4.997    (WHEN MIN. R.F.=1)  AT K=   4, I=   1, J=  74

 MAXIMUM STEPSIZE WHICH MEETS STABILITY CRITERION OF THE ADVECTION TERM
 (FOR PURE FINITE-DIFFERENCE OPTION, MIXELM=0) 
 =  3.638    (WHEN MIN. R.F.=1)  AT K=   2, I=   1, J=  80


 TOTAL NUMBER OF POINT SOURCES/SINKS PRESENT IN THE FLOW MODEL =    62

 MAXIMUM STEPSIZE WHICH MEETS STABILITY CRITERION OF THE SINK & SOURCE TERM
 =  5524.    (WHEN MIN. R.F.=1)  AT K=   2, I=   1, J= 120

 MAXIMUM STEPSIZE WHICH MEETS STABILITY CRITERION OF THE DISPERSION TERM
 =  20.29    (WHEN MIN. R.F.=1)  AT K=   1, I=   1, J=  31
     1 CALLS TO GCG PACKAGE FOR TRANSPORT TIME STEP   4 IN FLOW TIME STEP 682 STRESS PERIOD   1
     5 TOTAL ITERATIONS
  MAXIMUM CONCENTRATION CHANGES FOR EACH ITERATION:
  MAX. CHANGE LAYER,ROW,COL MAX. CHANGE LAYER,ROW,COL MAX. CHANGE LAYER,ROW,COL MAX. CHANGE LAYER,ROW,COL MAX. CHANGE LAYER,ROW,COL
 ------------------------------------------------------------------------------------------------------------------------------------
   0.1690E-01 (  2,  1, 81)  0.3344E-03 (  2,  1, 44)  0.1345E-04 (  3,  1, 79)  0.3816E-06 (  3,  1, 77)  0.1031E-07 (  4,  1, 77)


                                          ================================================
                                                         FROM TIME =   6820.0     TO    6830.0    

 
 SOLVING FOR HEAD 
 FLOW MODEL IS TRANSIENT
 FLOW MODEL CONTAINS CONSTANT-HEAD CELLS


 MAXIMUM STEPSIZE DURING WHICH ANY PARTICLE CANNOT MOVE MORE THAN ONE CELL
 =  5.025    (WHEN MIN. R.F.=1)  AT K=   4, I=   1, J=  74

 MAXIMUM STEPSIZE WHICH MEETS STABILITY CRITERION OF THE ADVECTION TERM
 (FOR PURE FINITE-DIFFERENCE OPTION, MIXELM=0) 
 =  3.712    (WHEN MIN. R.F.=1)  AT K=   2, I=   1, J=  80


 TOTAL NUMBER OF POINT SOURCES/SINKS PRESENT IN THE FLOW MODEL =    62

 MAXIMUM STEPSIZE WHICH MEETS STABILITY CRITERION OF THE SINK & SOURCE TERM
 = 0.1000E+31(WHEN MIN. R.F.=1)  AT K=   0, I=   0, J=   0

 MAXIMUM STEPSIZE WHICH MEETS STABILITY CRITERION OF THE DISPERSION TERM
 =  20.29    (WHEN MIN. R.F.=1)  AT K=   1, I=   1, J=  31


     1 CALLS TO GCG PACKAGE FOR TRANSPORT TIME STEP   1 IN FLOW TIME STEP 683 STRESS PERIOD   1
     6 TOTAL ITERATIONS

 NO OUTPUT CONTROL FOR STRESS PERIOD    1   TIME STEP 683
 
 SOLVING FOR HEAD 
 FLOW MODEL IS TRANSIENT
 FLOW MODEL CONTAINS CONSTANT-HEAD CELLS


 MAXIMUM STEPSIZE DURING WHICH ANY PARTICLE CANNOT MOVE MORE THAN ONE CELL
 =  5.079    (WHEN MIN. R.F.=1)  AT K=   5, I=   1, J=  74

 MAXIMUM STEPSIZE WHICH MEETS STABILITY CRITERION OF THE ADVECTION TERM
 (FOR PURE FINITE-DIFFERENCE OPTION, MIXELM=0) 
 =  4.012    (WHEN MIN. R.F.=1)  AT K=   2, I=   1, J=  79


 TOTAL NUMBER OF POINT SOURCES/SINKS PRESENT IN THE FLOW MODEL =    62

 MAXIMUM STEPSIZE WHICH MEETS STABILITY CRITERION OF THE SINK & SOURCE TERM
 = 0.1000E+31(WHEN MIN. R.F.=1)  AT K=   0, I=   0, J=   0

 MAXIMUM STEPSIZE WHICH MEETS STABILITY CRITERION OF THE DISPERSION TERM
 =  20.29    (WHEN MIN. R.F.=1)  AT K=   1, I=   1, J=  31
     1 CALLS TO GCG PACKAGE FOR TRANSPORT TIME STEP   2 IN FLOW TIME STEP 683 STRESS PERIOD   1
     6 TOTAL ITERATIONS
 
 SOLVING FOR HEAD 
 FLOW MODEL IS TRANSIENT
 FLOW MODEL CONTAINS CONSTANT-HEAD CELLS


 MAXIMUM STEPSIZE DURING WHICH ANY PARTICLE CANNOT MOVE MORE THAN ONE CELL
 =  5.133    (WHEN MIN. R.F.=1)  AT K=   5, I=   1, J=  74

 MAXIMUM STEPSIZE WHICH MEETS STABILITY CRITERION OF THE ADVECTION TERM
 (FOR PURE FINITE-DIFFERENCE OPTION, MIXELM=0) 
 =  3.710    (WHEN MIN. R.F.=1)  AT K=   2, I=   1, J=  79


 TOTAL NUMBER OF POINT SOURCES/SINKS PRESENT IN THE FLOW MODEL =    62

 MAXIMUM STEPSIZE WHICH MEETS STABILITY CRITERION OF THE SINK & SOURCE TERM
 = 0.1000E+31(WHEN MIN. R.F.=1)  AT K=   0, I=   0, J=   0

 MAXIMUM STEPSIZE WHICH MEETS STABILITY CRITERION OF THE DISPERSION TERM
 =  20.29    (WHEN MIN. R.F.=1)  AT K=   1, I=   1, J=  31
     1 CALLS TO GCG PACKAGE FOR TRANSPORT TIME STEP   3 IN FLOW TIME STEP 683 STRESS PERIOD   1
     6 TOTAL ITERATIONS
 
 SOLVING FOR HEAD 
 FLOW MODEL IS TRANSIENT
 FLOW MODEL CONTAINS CONSTANT-HEAD CELLS


 MAXIMUM STEPSIZE DURING WHICH ANY PARTICLE CANNOT MOVE MORE THAN ONE CELL
 =  5.226    (WHEN MIN. R.F.=1)  AT K=   5, I=   1, J=  74

 MAXIMUM STEPSIZE WHICH MEETS STABILITY CRITERION OF THE ADVECTION TERM
 (FOR PURE FINITE-DIFFERENCE OPTION, MIXELM=0) 
 =  3.570    (WHEN MIN. R.F.=1)  AT K=   2, I=   1, J=  79


 TOTAL NUMBER OF POINT SOURCES/SINKS PRESENT IN THE FLOW MODEL =    62

 MAXIMUM STEPSIZE WHICH MEETS STABILITY CRITERION OF THE SINK & SOURCE TERM
 = 0.1000E+31(WHEN MIN. R.F.=1)  AT K=   0, I=   0, J=   0

 MAXIMUM STEPSIZE WHICH MEETS STABILITY CRITERION OF THE DISPERSION TERM
 =  20.29    (WHEN MIN. R.F.=1)  AT K=   1, I=   1, J=  31
     1 CALLS TO GCG PACKAGE FOR TRANSPORT TIME STEP   4 IN FLOW TIME STEP 683 STRESS PERIOD   1
     5 TOTAL ITERATIONS
  MAXIMUM CONCENTRATION CHANGES FOR EACH ITERATION:
  MAX. CHANGE LAYER,ROW,COL MAX. CHANGE LAYER,ROW,COL MAX. CHANGE LAYER,ROW,COL MAX. CHANGE LAYER,ROW,COL MAX. CHANGE LAYER,ROW,COL
 ------------------------------------------------------------------------------------------------------------------------------------
   0.1631E-01 (  2,  1, 80)  0.3910E-03 (  2,  1, 46)  0.1256E-04 (  2,  1, 76)  0.6566E-06 (  3,  1, 76)  0.1700E-07 (  4,  1, 76)


                                          ================================================
                                                         FROM TIME =   6830.0     TO    6840.0    

 
 SOLVING FOR HEAD 
 FLOW MODEL IS TRANSIENT
 FLOW MODEL CONTAINS CONSTANT-HEAD CELLS


 MAXIMUM STEPSIZE DURING WHICH ANY PARTICLE CANNOT MOVE MORE THAN ONE CELL
 =  5.288    (WHEN MIN. R.F.=1)  AT K=   5, I=   1, J=  74

 MAXIMUM STEPSIZE WHICH MEETS STABILITY CRITERION OF THE ADVECTION TERM
 (FOR PURE FINITE-DIFFERENCE OPTION, MIXELM=0) 
 =  3.577    (WHEN MIN. R.F.=1)  AT K=   2, I=   1, J=  79


 TOTAL NUMBER OF POINT SOURCES/SINKS PRESENT IN THE FLOW MODEL =    62

 MAXIMUM STEPSIZE WHICH MEETS STABILITY CRITERION OF THE SINK & SOURCE TERM
 = 0.1000E+31(WHEN MIN. R.F.=1)  AT K=   0, I=   0, J=   0

 MAXIMUM STEPSIZE WHICH MEETS STABILITY CRITERION OF THE DISPERSION TERM
 =  20.29    (WHEN MIN. R.F.=1)  AT K=   1, I=   1, J=  31


     1 CALLS TO GCG PACKAGE FOR TRANSPORT TIME STEP   1 IN FLOW TIME STEP 684 STRESS PERIOD   1
     6 TOTAL ITERATIONS

 NO OUTPUT CONTROL FOR STRESS PERIOD    1   TIME STEP 684
 
 SOLVING FOR HEAD 
 FLOW MODEL IS TRANSIENT
 FLOW MODEL CONTAINS CONSTANT-HEAD CELLS


 MAXIMUM STEPSIZE DURING WHICH ANY PARTICLE CANNOT MOVE MORE THAN ONE CELL
 =  5.409    (WHEN MIN. R.F.=1)  AT K=   6, I=   1, J=  74

 MAXIMUM STEPSIZE WHICH MEETS STABILITY CRITERION OF THE ADVECTION TERM
 (FOR PURE FINITE-DIFFERENCE OPTION, MIXELM=0) 
 =  3.660    (WHEN MIN. R.F.=1)  AT K=   2, I=   1, J=  79


 TOTAL NUMBER OF POINT SOURCES/SINKS PRESENT IN THE FLOW MODEL =    62

 MAXIMUM STEPSIZE WHICH MEETS STABILITY CRITERION OF THE SINK & SOURCE TERM
 = 0.1000E+31(WHEN MIN. R.F.=1)  AT K=   0, I=   0, J=   0

 MAXIMUM STEPSIZE WHICH MEETS STABILITY CRITERION OF THE DISPERSION TERM
 =  20.29    (WHEN MIN. R.F.=1)  AT K=   1, I=   1, J=  31
     1 CALLS TO GCG PACKAGE FOR TRANSPORT TIME STEP   2 IN FLOW TIME STEP 684 STRESS PERIOD   1
     6 TOTAL ITERATIONS
 
 SOLVING FOR HEAD 
 FLOW MODEL IS TRANSIENT
 FLOW MODEL CONTAINS CONSTANT-HEAD CELLS


 MAXIMUM STEPSIZE DURING WHICH ANY PARTICLE CANNOT MOVE MORE THAN ONE CELL
 =  5.508    (WHEN MIN. R.F.=1)  AT K=   6, I=   1, J=  74

 MAXIMUM STEPSIZE WHICH MEETS STABILITY CRITERION OF THE ADVECTION TERM
 (FOR PURE FINITE-DIFFERENCE OPTION, MIXELM=0) 
 =  3.922    (WHEN MIN. R.F.=1)  AT K=   2, I=   1, J=  79


 TOTAL NUMBER OF POINT SOURCES/SINKS PRESENT IN THE FLOW MODEL =    62

 MAXIMUM STEPSIZE WHICH MEETS STABILITY CRITERION OF THE SINK & SOURCE TERM
 = 0.1000E+31(WHEN MIN. R.F.=1)  AT K=   0, I=   0, J=   0

 MAXIMUM STEPSIZE WHICH MEETS STABILITY CRITERION OF THE DISPERSION TERM
 =  20.29    (WHEN MIN. R.F.=1)  AT K=   1, I=   1, J=  31
     1 CALLS TO GCG PACKAGE FOR TRANSPORT TIME STEP   3 IN FLOW TIME STEP 684 STRESS PERIOD   1
     6 TOTAL ITERATIONS
 
 SOLVING FOR HEAD 
 FLOW MODEL IS TRANSIENT
 FLOW MODEL CONTAINS CONSTANT-HEAD CELLS


 MAXIMUM STEPSIZE DURING WHICH ANY PARTICLE CANNOT MOVE MORE THAN ONE CELL
 =  5.638    (WHEN MIN. R.F.=1)  AT K=   6, I=   1, J=  74

 MAXIMUM STEPSIZE WHICH MEETS STABILITY CRITERION OF THE ADVECTION TERM
 (FOR PURE FINITE-DIFFERENCE OPTION, MIXELM=0) 
 =  3.938    (WHEN MIN. R.F.=1)  AT K=   2, I=   1, J=  78


 TOTAL NUMBER OF POINT SOURCES/SINKS PRESENT IN THE FLOW MODEL =    62

 MAXIMUM STEPSIZE WHICH MEETS STABILITY CRITERION OF THE SINK & SOURCE TERM
 =  9767.    (WHEN MIN. R.F.=1)  AT K=   2, I=   1, J=   1

 MAXIMUM STEPSIZE WHICH MEETS STABILITY CRITERION OF THE DISPERSION TERM
 =  20.29    (WHEN MIN. R.F.=1)  AT K=   1, I=   1, J=  31
     1 CALLS TO GCG PACKAGE FOR TRANSPORT TIME STEP   4 IN FLOW TIME STEP 684 STRESS PERIOD   1
     5 TOTAL ITERATIONS
  MAXIMUM CONCENTRATION CHANGES FOR EACH ITERATION:
  MAX. CHANGE LAYER,ROW,COL MAX. CHANGE LAYER,ROW,COL MAX. CHANGE LAYER,ROW,COL MAX. CHANGE LAYER,ROW,COL MAX. CHANGE LAYER,ROW,COL
 ------------------------------------------------------------------------------------------------------------------------------------
   0.2111E-01 (  2,  1, 80)  0.7240E-03 (  2,  1, 78)  0.2491E-04 (  3,  1, 78)  0.9145E-06 (  3,  1, 76)  0.3448E-07 (  3,  1, 77)


                                          ================================================
                                                         FROM TIME =   6840.0     TO    6850.0    

 
 SOLVING FOR HEAD 
 FLOW MODEL IS TRANSIENT
 FLOW MODEL CONTAINS CONSTANT-HEAD CELLS


 MAXIMUM STEPSIZE DURING WHICH ANY PARTICLE CANNOT MOVE MORE THAN ONE CELL
 =  5.737    (WHEN MIN. R.F.=1)  AT K=  28, I=   1, J=  52

 MAXIMUM STEPSIZE WHICH MEETS STABILITY CRITERION OF THE ADVECTION TERM
 (FOR PURE FINITE-DIFFERENCE OPTION, MIXELM=0) 
 =  3.791    (WHEN MIN. R.F.=1)  AT K=   2, I=   1, J=  78


 TOTAL NUMBER OF POINT SOURCES/SINKS PRESENT IN THE FLOW MODEL =    62

 MAXIMUM STEPSIZE WHICH MEETS STABILITY CRITERION OF THE SINK & SOURCE TERM
 =  4031.    (WHEN MIN. R.F.=1)  AT K=   2, I=   1, J=   1

 MAXIMUM STEPSIZE WHICH MEETS STABILITY CRITERION OF THE DISPERSION TERM
 =  20.29    (WHEN MIN. R.F.=1)  AT K=   1, I=   1, J=  31


     1 CALLS TO GCG PACKAGE FOR TRANSPORT TIME STEP   1 IN FLOW TIME STEP 685 STRESS PERIOD   1
     6 TOTAL ITERATIONS

 NO OUTPUT CONTROL FOR STRESS PERIOD    1   TIME STEP 685
 
 SOLVING FOR HEAD 
 FLOW MODEL IS TRANSIENT
 FLOW MODEL CONTAINS CONSTANT-HEAD CELLS


 MAXIMUM STEPSIZE DURING WHICH ANY PARTICLE CANNOT MOVE MORE THAN ONE CELL
 =  5.734    (WHEN MIN. R.F.=1)  AT K=  28, I=   1, J=  52

 MAXIMUM STEPSIZE WHICH MEETS STABILITY CRITERION OF THE ADVECTION TERM
 (FOR PURE FINITE-DIFFERENCE OPTION, MIXELM=0) 
 =  3.682    (WHEN MIN. R.F.=1)  AT K=   2, I=   1, J=  78


 TOTAL NUMBER OF POINT SOURCES/SINKS PRESENT IN THE FLOW MODEL =    62

 MAXIMUM STEPSIZE WHICH MEETS STABILITY CRITERION OF THE SINK & SOURCE TERM
 =  1943.    (WHEN MIN. R.F.=1)  AT K=   2, I=   1, J=   1

 MAXIMUM STEPSIZE WHICH MEETS STABILITY CRITERION OF THE DISPERSION TERM
 =  20.29    (WHEN MIN. R.F.=1)  AT K=   1, I=   1, J=  31
     1 CALLS TO GCG PACKAGE FOR TRANSPORT TIME STEP   2 IN FLOW TIME STEP 685 STRESS PERIOD   1
     6 TOTAL ITERATIONS
 
 SOLVING FOR HEAD 
 FLOW MODEL IS TRANSIENT
 FLOW MODEL CONTAINS CONSTANT-HEAD CELLS


 MAXIMUM STEPSIZE DURING WHICH ANY PARTICLE CANNOT MOVE MORE THAN ONE CELL
 =  5.731    (WHEN MIN. R.F.=1)  AT K=  28, I=   1, J=  52

 MAXIMUM STEPSIZE WHICH MEETS STABILITY CRITERION OF THE ADVECTION TERM
 (FOR PURE FINITE-DIFFERENCE OPTION, MIXELM=0) 
 =  3.707    (WHEN MIN. R.F.=1)  AT K=   2, I=   1, J=  78


 TOTAL NUMBER OF POINT SOURCES/SINKS PRESENT IN THE FLOW MODEL =    62

 MAXIMUM STEPSIZE WHICH MEETS STABILITY CRITERION OF THE SINK & SOURCE TERM
 =  1254.    (WHEN MIN. R.F.=1)  AT K=   2, I=   1, J=   1

 MAXIMUM STEPSIZE WHICH MEETS STABILITY CRITERION OF THE DISPERSION TERM
 =  20.29    (WHEN MIN. R.F.=1)  AT K=   1, I=   1, J=  31
     1 CALLS TO GCG PACKAGE FOR TRANSPORT TIME STEP   3 IN FLOW TIME STEP 685 STRESS PERIOD   1
     6 TOTAL ITERATIONS
 
 SOLVING FOR HEAD 
 FLOW MODEL IS TRANSIENT
 FLOW MODEL CONTAINS CONSTANT-HEAD CELLS


 MAXIMUM STEPSIZE DURING WHICH ANY PARTICLE CANNOT MOVE MORE THAN ONE CELL
 =  5.729    (WHEN MIN. R.F.=1)  AT K=  28, I=   1, J=  52

 MAXIMUM STEPSIZE WHICH MEETS STABILITY CRITERION OF THE ADVECTION TERM
 (FOR PURE FINITE-DIFFERENCE OPTION, MIXELM=0) 
 =  3.849    (WHEN MIN. R.F.=1)  AT K=   2, I=   1, J=  78


 TOTAL NUMBER OF POINT SOURCES/SINKS PRESENT IN THE FLOW MODEL =    62

 MAXIMUM STEPSIZE WHICH MEETS STABILITY CRITERION OF THE SINK & SOURCE TERM
 =  1020.    (WHEN MIN. R.F.=1)  AT K=   2, I=   1, J=   1

 MAXIMUM STEPSIZE WHICH MEETS STABILITY CRITERION OF THE DISPERSION TERM
 =  20.29    (WHEN MIN. R.F.=1)  AT K=   1, I=   1, J=  31
     1 CALLS TO GCG PACKAGE FOR TRANSPORT TIME STEP   4 IN FLOW TIME STEP 685 STRESS PERIOD   1
     5 TOTAL ITERATIONS
  MAXIMUM CONCENTRATION CHANGES FOR EACH ITERATION:
  MAX. CHANGE LAYER,ROW,COL MAX. CHANGE LAYER,ROW,COL MAX. CHANGE LAYER,ROW,COL MAX. CHANGE LAYER,ROW,COL MAX. CHANGE LAYER,ROW,COL
 ------------------------------------------------------------------------------------------------------------------------------------
   0.1824E-01 (  2,  1, 79)  0.3488E-03 (  2,  1, 77)  0.1126E-04 (  2,  1, 80)  0.4091E-06 (  3,  1, 80)  0.1083E-07 (  3,  1, 77)


                                          ================================================
                                                         FROM TIME =   6850.0     TO    6860.0    

 
 SOLVING FOR HEAD 
 FLOW MODEL IS TRANSIENT
 FLOW MODEL CONTAINS CONSTANT-HEAD CELLS


 MAXIMUM STEPSIZE DURING WHICH ANY PARTICLE CANNOT MOVE MORE THAN ONE CELL
 =  5.733    (WHEN MIN. R.F.=1)  AT K=  28, I=   1, J=  52

 MAXIMUM STEPSIZE WHICH MEETS STABILITY CRITERION OF THE ADVECTION TERM
 (FOR PURE FINITE-DIFFERENCE OPTION, MIXELM=0) 
 =  4.001    (WHEN MIN. R.F.=1)  AT K=   2, I=   1, J=  78


 TOTAL NUMBER OF POINT SOURCES/SINKS PRESENT IN THE FLOW MODEL =    62

 MAXIMUM STEPSIZE WHICH MEETS STABILITY CRITERION OF THE SINK & SOURCE TERM
 =  954.2    (WHEN MIN. R.F.=1)  AT K=   2, I=   1, J=   1

 MAXIMUM STEPSIZE WHICH MEETS STABILITY CRITERION OF THE DISPERSION TERM
 =  20.29    (WHEN MIN. R.F.=1)  AT K=   1, I=   1, J=  31


     1 CALLS TO GCG PACKAGE FOR TRANSPORT TIME STEP   1 IN FLOW TIME STEP 686 STRESS PERIOD   1
     6 TOTAL ITERATIONS

 NO OUTPUT CONTROL FOR STRESS PERIOD    1   TIME STEP 686
 
 SOLVING FOR HEAD 
 FLOW MODEL IS TRANSIENT
 FLOW MODEL CONTAINS CONSTANT-HEAD CELLS


 MAXIMUM STEPSIZE DURING WHICH ANY PARTICLE CANNOT MOVE MORE THAN ONE CELL
 =  5.732    (WHEN MIN. R.F.=1)  AT K=  28, I=   1, J=  52

 MAXIMUM STEPSIZE WHICH MEETS STABILITY CRITERION OF THE ADVECTION TERM
 (FOR PURE FINITE-DIFFERENCE OPTION, MIXELM=0) 
 =  4.235    (WHEN MIN. R.F.=1)  AT K=   2, I=   1, J=  77


 TOTAL NUMBER OF POINT SOURCES/SINKS PRESENT IN THE FLOW MODEL =    62

 MAXIMUM STEPSIZE WHICH MEETS STABILITY CRITERION OF THE SINK & SOURCE TERM
 =  703.6    (WHEN MIN. R.F.=1)  AT K=   2, I=   1, J=   1

 MAXIMUM STEPSIZE WHICH MEETS STABILITY CRITERION OF THE DISPERSION TERM
 =  20.29    (WHEN MIN. R.F.=1)  AT K=   1, I=   1, J=  31
     1 CALLS TO GCG PACKAGE FOR TRANSPORT TIME STEP   2 IN FLOW TIME STEP 686 STRESS PERIOD   1
     6 TOTAL ITERATIONS
 
 SOLVING FOR HEAD 
 FLOW MODEL IS TRANSIENT
 FLOW MODEL CONTAINS CONSTANT-HEAD CELLS


 MAXIMUM STEPSIZE DURING WHICH ANY PARTICLE CANNOT MOVE MORE THAN ONE CELL
 =  5.728    (WHEN MIN. R.F.=1)  AT K=  28, I=   1, J=  52

 MAXIMUM STEPSIZE WHICH MEETS STABILITY CRITERION OF THE ADVECTION TERM
 (FOR PURE FINITE-DIFFERENCE OPTION, MIXELM=0) 
 =  3.967    (WHEN MIN. R.F.=1)  AT K=   2, I=   1, J=  77


 TOTAL NUMBER OF POINT SOURCES/SINKS PRESENT IN THE FLOW MODEL =    62

 MAXIMUM STEPSIZE WHICH MEETS STABILITY CRITERION OF THE SINK & SOURCE TERM
 =  587.8    (WHEN MIN. R.F.=1)  AT K=   2, I=   1, J=   1

 MAXIMUM STEPSIZE WHICH MEETS STABILITY CRITERION OF THE DISPERSION TERM
 =  20.29    (WHEN MIN. R.F.=1)  AT K=   1, I=   1, J=  31
     1 CALLS TO GCG PACKAGE FOR TRANSPORT TIME STEP   3 IN FLOW TIME STEP 686 STRESS PERIOD   1
     6 TOTAL ITERATIONS
 
 SOLVING FOR HEAD 
 FLOW MODEL IS TRANSIENT
 FLOW MODEL CONTAINS CONSTANT-HEAD CELLS


 MAXIMUM STEPSIZE DURING WHICH ANY PARTICLE CANNOT MOVE MORE THAN ONE CELL
 =  5.724    (WHEN MIN. R.F.=1)  AT K=  28, I=   1, J=  52

 MAXIMUM STEPSIZE WHICH MEETS STABILITY CRITERION OF THE ADVECTION TERM
 (FOR PURE FINITE-DIFFERENCE OPTION, MIXELM=0) 
 =  3.864    (WHEN MIN. R.F.=1)  AT K=   2, I=   1, J=  77


 TOTAL NUMBER OF POINT SOURCES/SINKS PRESENT IN THE FLOW MODEL =    62

 MAXIMUM STEPSIZE WHICH MEETS STABILITY CRITERION OF THE SINK & SOURCE TERM
 =  508.9    (WHEN MIN. R.F.=1)  AT K=   2, I=   1, J=   1

 MAXIMUM STEPSIZE WHICH MEETS STABILITY CRITERION OF THE DISPERSION TERM
 =  20.29    (WHEN MIN. R.F.=1)  AT K=   1, I=   1, J=  31
     1 CALLS TO GCG PACKAGE FOR TRANSPORT TIME STEP   4 IN FLOW TIME STEP 686 STRESS PERIOD   1
     4 TOTAL ITERATIONS
  MAXIMUM CONCENTRATION CHANGES FOR EACH ITERATION:
  MAX. CHANGE LAYER,ROW,COL MAX. CHANGE LAYER,ROW,COL MAX. CHANGE LAYER,ROW,COL MAX. CHANGE LAYER,ROW,COL MAX. CHANGE LAYER,ROW,COL
 ------------------------------------------------------------------------------------------------------------------------------------
   0.9781E-02 (  2,  1, 31)  0.1689E-03 (  2,  1, 77)  0.3013E-05 (  2,  1, 79)  0.6307E-07 (  3,  1, 79)


                                          ================================================
                                                         FROM TIME =   6860.0     TO    6870.0    

 
 SOLVING FOR HEAD 
 FLOW MODEL IS TRANSIENT
 FLOW MODEL CONTAINS CONSTANT-HEAD CELLS


 MAXIMUM STEPSIZE DURING WHICH ANY PARTICLE CANNOT MOVE MORE THAN ONE CELL
 =  5.728    (WHEN MIN. R.F.=1)  AT K=  28, I=   1, J=  52

 MAXIMUM STEPSIZE WHICH MEETS STABILITY CRITERION OF THE ADVECTION TERM
 (FOR PURE FINITE-DIFFERENCE OPTION, MIXELM=0) 
 =  3.868    (WHEN MIN. R.F.=1)  AT K=   2, I=   1, J=  77


 TOTAL NUMBER OF POINT SOURCES/SINKS PRESENT IN THE FLOW MODEL =    62

 MAXIMUM STEPSIZE WHICH MEETS STABILITY CRITERION OF THE SINK & SOURCE TERM
 =  546.8    (WHEN MIN. R.F.=1)  AT K=   2, I=   1, J=   1

 MAXIMUM STEPSIZE WHICH MEETS STABILITY CRITERION OF THE DISPERSION TERM
 =  20.29    (WHEN MIN. R.F.=1)  AT K=   1, I=   1, J=  31


     1 CALLS TO GCG PACKAGE FOR TRANSPORT TIME STEP   1 IN FLOW TIME STEP 687 STRESS PERIOD   1
     6 TOTAL ITERATIONS

 NO OUTPUT CONTROL FOR STRESS PERIOD    1   TIME STEP 687
 
 SOLVING FOR HEAD 
 FLOW MODEL IS TRANSIENT
 FLOW MODEL CONTAINS CONSTANT-HEAD CELLS


 MAXIMUM STEPSIZE DURING WHICH ANY PARTICLE CANNOT MOVE MORE THAN ONE CELL
 =  5.728    (WHEN MIN. R.F.=1)  AT K=  28, I=   1, J=  52

 MAXIMUM STEPSIZE WHICH MEETS STABILITY CRITERION OF THE ADVECTION TERM
 (FOR PURE FINITE-DIFFERENCE OPTION, MIXELM=0) 
 =  3.933    (WHEN MIN. R.F.=1)  AT K=   2, I=   1, J=  77


 TOTAL NUMBER OF POINT SOURCES/SINKS PRESENT IN THE FLOW MODEL =    62

 MAXIMUM STEPSIZE WHICH MEETS STABILITY CRITERION OF THE SINK & SOURCE TERM
 =  453.4    (WHEN MIN. R.F.=1)  AT K=   2, I=   1, J=   1

 MAXIMUM STEPSIZE WHICH MEETS STABILITY CRITERION OF THE DISPERSION TERM
 =  20.29    (WHEN MIN. R.F.=1)  AT K=   1, I=   1, J=  31
     1 CALLS TO GCG PACKAGE FOR TRANSPORT TIME STEP   2 IN FLOW TIME STEP 687 STRESS PERIOD   1
     6 TOTAL ITERATIONS
 
 SOLVING FOR HEAD 
 FLOW MODEL IS TRANSIENT
 FLOW MODEL CONTAINS CONSTANT-HEAD CELLS


 MAXIMUM STEPSIZE DURING WHICH ANY PARTICLE CANNOT MOVE MORE THAN ONE CELL
 =  5.566    (WHEN MIN. R.F.=1)  AT K=   4, I=   1, J=  47

 MAXIMUM STEPSIZE WHICH MEETS STABILITY CRITERION OF THE ADVECTION TERM
 (FOR PURE FINITE-DIFFERENCE OPTION, MIXELM=0) 
 =  4.132    (WHEN MIN. R.F.=1)  AT K=   2, I=   1, J=  77


 TOTAL NUMBER OF POINT SOURCES/SINKS PRESENT IN THE FLOW MODEL =    62

 MAXIMUM STEPSIZE WHICH MEETS STABILITY CRITERION OF THE SINK & SOURCE TERM
 =  407.5    (WHEN MIN. R.F.=1)  AT K=   2, I=   1, J=   1

 MAXIMUM STEPSIZE WHICH MEETS STABILITY CRITERION OF THE DISPERSION TERM
 =  20.29    (WHEN MIN. R.F.=1)  AT K=   1, I=   1, J=  31
     1 CALLS TO GCG PACKAGE FOR TRANSPORT TIME STEP   3 IN FLOW TIME STEP 687 STRESS PERIOD   1
     6 TOTAL ITERATIONS
 
 SOLVING FOR HEAD 
 FLOW MODEL IS TRANSIENT
 FLOW MODEL CONTAINS CONSTANT-HEAD CELLS


 MAXIMUM STEPSIZE DURING WHICH ANY PARTICLE CANNOT MOVE MORE THAN ONE CELL
 =  5.324    (WHEN MIN. R.F.=1)  AT K=   4, I=   1, J=  47

 MAXIMUM STEPSIZE WHICH MEETS STABILITY CRITERION OF THE ADVECTION TERM
 (FOR PURE FINITE-DIFFERENCE OPTION, MIXELM=0) 
 =  4.100    (WHEN MIN. R.F.=1)  AT K=   2, I=   1, J=  40


 TOTAL NUMBER OF POINT SOURCES/SINKS PRESENT IN THE FLOW MODEL =    62

 MAXIMUM STEPSIZE WHICH MEETS STABILITY CRITERION OF THE SINK & SOURCE TERM
 =  370.7    (WHEN MIN. R.F.=1)  AT K=   2, I=   1, J=   1

 MAXIMUM STEPSIZE WHICH MEETS STABILITY CRITERION OF THE DISPERSION TERM
 =  20.29    (WHEN MIN. R.F.=1)  AT K=   1, I=   1, J=  31
     1 CALLS TO GCG PACKAGE FOR TRANSPORT TIME STEP   4 IN FLOW TIME STEP 687 STRESS PERIOD   1
     5 TOTAL ITERATIONS
  MAXIMUM CONCENTRATION CHANGES FOR EACH ITERATION:
  MAX. CHANGE LAYER,ROW,COL MAX. CHANGE LAYER,ROW,COL MAX. CHANGE LAYER,ROW,COL MAX. CHANGE LAYER,ROW,COL MAX. CHANGE LAYER,ROW,COL
 ------------------------------------------------------------------------------------------------------------------------------------
   0.1406E-01 (  2,  1, 78)  0.2882E-03 (  2,  1, 76)  0.5839E-05 (  2,  1, 76)  0.1935E-06 (  3,  1, 75)  0.5240E-08 (  4,  1, 75)


                                          ================================================
                                                         FROM TIME =   6870.0     TO    6880.0    

 
 SOLVING FOR HEAD 
 FLOW MODEL IS TRANSIENT
 FLOW MODEL CONTAINS CONSTANT-HEAD CELLS


 MAXIMUM STEPSIZE DURING WHICH ANY PARTICLE CANNOT MOVE MORE THAN ONE CELL
 =  5.244    (WHEN MIN. R.F.=1)  AT K=   4, I=   1, J=  47

 MAXIMUM STEPSIZE WHICH MEETS STABILITY CRITERION OF THE ADVECTION TERM
 (FOR PURE FINITE-DIFFERENCE OPTION, MIXELM=0) 
 =  4.049    (WHEN MIN. R.F.=1)  AT K=   2, I=   1, J=  40


 TOTAL NUMBER OF POINT SOURCES/SINKS PRESENT IN THE FLOW MODEL =    62

 MAXIMUM STEPSIZE WHICH MEETS STABILITY CRITERION OF THE SINK & SOURCE TERM
 =  377.0    (WHEN MIN. R.F.=1)  AT K=   2, I=   1, J=   1

 MAXIMUM STEPSIZE WHICH MEETS STABILITY CRITERION OF THE DISPERSION TERM
 =  20.29    (WHEN MIN. R.F.=1)  AT K=   1, I=   1, J=  31


     1 CALLS TO GCG PACKAGE FOR TRANSPORT TIME STEP   1 IN FLOW TIME STEP 688 STRESS PERIOD   1
     6 TOTAL ITERATIONS

 NO OUTPUT CONTROL FOR STRESS PERIOD    1   TIME STEP 688
 
 SOLVING FOR HEAD 
 FLOW MODEL IS TRANSIENT
 FLOW MODEL CONTAINS CONSTANT-HEAD CELLS


 MAXIMUM STEPSIZE DURING WHICH ANY PARTICLE CANNOT MOVE MORE THAN ONE CELL
 =  5.102    (WHEN MIN. R.F.=1)  AT K=   4, I=   1, J=  47

 MAXIMUM STEPSIZE WHICH MEETS STABILITY CRITERION OF THE ADVECTION TERM
 (FOR PURE FINITE-DIFFERENCE OPTION, MIXELM=0) 
 =  4.057    (WHEN MIN. R.F.=1)  AT K=   2, I=   1, J=  40


 TOTAL NUMBER OF POINT SOURCES/SINKS PRESENT IN THE FLOW MODEL =    62

 MAXIMUM STEPSIZE WHICH MEETS STABILITY CRITERION OF THE SINK & SOURCE TERM
 =  327.4    (WHEN MIN. R.F.=1)  AT K=   2, I=   1, J=   1

 MAXIMUM STEPSIZE WHICH MEETS STABILITY CRITERION OF THE DISPERSION TERM
 =  20.29    (WHEN MIN. R.F.=1)  AT K=   1, I=   1, J=  31
     1 CALLS TO GCG PACKAGE FOR TRANSPORT TIME STEP   2 IN FLOW TIME STEP 688 STRESS PERIOD   1
     6 TOTAL ITERATIONS
 
 SOLVING FOR HEAD 
 FLOW MODEL IS TRANSIENT
 FLOW MODEL CONTAINS CONSTANT-HEAD CELLS


 MAXIMUM STEPSIZE DURING WHICH ANY PARTICLE CANNOT MOVE MORE THAN ONE CELL
 =  5.032    (WHEN MIN. R.F.=1)  AT K=   4, I=   1, J=  47

 MAXIMUM STEPSIZE WHICH MEETS STABILITY CRITERION OF THE ADVECTION TERM
 (FOR PURE FINITE-DIFFERENCE OPTION, MIXELM=0) 
 =  4.255    (WHEN MIN. R.F.=1)  AT K=   2, I=   1, J=  41


 TOTAL NUMBER OF POINT SOURCES/SINKS PRESENT IN THE FLOW MODEL =    62

 MAXIMUM STEPSIZE WHICH MEETS STABILITY CRITERION OF THE SINK & SOURCE TERM
 =  300.0    (WHEN MIN. R.F.=1)  AT K=   2, I=   1, J=   1

 MAXIMUM STEPSIZE WHICH MEETS STABILITY CRITERION OF THE DISPERSION TERM
 =  20.29    (WHEN MIN. R.F.=1)  AT K=   1, I=   1, J=  31
     1 CALLS TO GCG PACKAGE FOR TRANSPORT TIME STEP   3 IN FLOW TIME STEP 688 STRESS PERIOD   1
     6 TOTAL ITERATIONS
 
 SOLVING FOR HEAD 
 FLOW MODEL IS TRANSIENT
 FLOW MODEL CONTAINS CONSTANT-HEAD CELLS


 MAXIMUM STEPSIZE DURING WHICH ANY PARTICLE CANNOT MOVE MORE THAN ONE CELL
 =  5.025    (WHEN MIN. R.F.=1)  AT K=   4, I=   1, J=  47

 MAXIMUM STEPSIZE WHICH MEETS STABILITY CRITERION OF THE ADVECTION TERM
 (FOR PURE FINITE-DIFFERENCE OPTION, MIXELM=0) 
 =  3.913    (WHEN MIN. R.F.=1)  AT K=   2, I=   1, J=  41


 TOTAL NUMBER OF POINT SOURCES/SINKS PRESENT IN THE FLOW MODEL =    62

 MAXIMUM STEPSIZE WHICH MEETS STABILITY CRITERION OF THE SINK & SOURCE TERM
 =  285.4    (WHEN MIN. R.F.=1)  AT K=   2, I=   1, J=   1

 MAXIMUM STEPSIZE WHICH MEETS STABILITY CRITERION OF THE DISPERSION TERM
 =  20.29    (WHEN MIN. R.F.=1)  AT K=   1, I=   1, J=  31
     1 CALLS TO GCG PACKAGE FOR TRANSPORT TIME STEP   4 IN FLOW TIME STEP 688 STRESS PERIOD   1
     4 TOTAL ITERATIONS
  MAXIMUM CONCENTRATION CHANGES FOR EACH ITERATION:
  MAX. CHANGE LAYER,ROW,COL MAX. CHANGE LAYER,ROW,COL MAX. CHANGE LAYER,ROW,COL MAX. CHANGE LAYER,ROW,COL MAX. CHANGE LAYER,ROW,COL
 ------------------------------------------------------------------------------------------------------------------------------------
   0.9559E-02 (  2,  1, 77)  0.1306E-03 (  2,  1, 77)  0.2633E-05 (  2,  1, 78)  0.5625E-07 (  3,  1, 78)


                                          ================================================
                                                         FROM TIME =   6880.0     TO    6890.0    

 
 SOLVING FOR HEAD 
 FLOW MODEL IS TRANSIENT
 FLOW MODEL CONTAINS CONSTANT-HEAD CELLS


 MAXIMUM STEPSIZE DURING WHICH ANY PARTICLE CANNOT MOVE MORE THAN ONE CELL
 =  5.034    (WHEN MIN. R.F.=1)  AT K=   4, I=   1, J=  47

 MAXIMUM STEPSIZE WHICH MEETS STABILITY CRITERION OF THE ADVECTION TERM
 (FOR PURE FINITE-DIFFERENCE OPTION, MIXELM=0) 
 =  3.866    (WHEN MIN. R.F.=1)  AT K=   2, I=   1, J=  41


 TOTAL NUMBER OF POINT SOURCES/SINKS PRESENT IN THE FLOW MODEL =    62

 MAXIMUM STEPSIZE WHICH MEETS STABILITY CRITERION OF THE SINK & SOURCE TERM
 =  299.9    (WHEN MIN. R.F.=1)  AT K=   2, I=   1, J=   1

 MAXIMUM STEPSIZE WHICH MEETS STABILITY CRITERION OF THE DISPERSION TERM
 =  20.29    (WHEN MIN. R.F.=1)  AT K=   1, I=   1, J=  31


     1 CALLS TO GCG PACKAGE FOR TRANSPORT TIME STEP   1 IN FLOW TIME STEP 689 STRESS PERIOD   1
     6 TOTAL ITERATIONS

 NO OUTPUT CONTROL FOR STRESS PERIOD    1   TIME STEP 689
 
 SOLVING FOR HEAD 
 FLOW MODEL IS TRANSIENT
 FLOW MODEL CONTAINS CONSTANT-HEAD CELLS


 MAXIMUM STEPSIZE DURING WHICH ANY PARTICLE CANNOT MOVE MORE THAN ONE CELL
 =  5.088    (WHEN MIN. R.F.=1)  AT K=   4, I=   1, J=  47

 MAXIMUM STEPSIZE WHICH MEETS STABILITY CRITERION OF THE ADVECTION TERM
 (FOR PURE FINITE-DIFFERENCE OPTION, MIXELM=0) 
 =  3.794    (WHEN MIN. R.F.=1)  AT K=   2, I=   1, J=  41


 TOTAL NUMBER OF POINT SOURCES/SINKS PRESENT IN THE FLOW MODEL =    62

 MAXIMUM STEPSIZE WHICH MEETS STABILITY CRITERION OF THE SINK & SOURCE TERM
 =  271.1    (WHEN MIN. R.F.=1)  AT K=   2, I=   1, J=   1

 MAXIMUM STEPSIZE WHICH MEETS STABILITY CRITERION OF THE DISPERSION TERM
 =  20.29    (WHEN MIN. R.F.=1)  AT K=   1, I=   1, J=  31
     1 CALLS TO GCG PACKAGE FOR TRANSPORT TIME STEP   2 IN FLOW TIME STEP 689 STRESS PERIOD   1
     6 TOTAL ITERATIONS
 
 SOLVING FOR HEAD 
 FLOW MODEL IS TRANSIENT
 FLOW MODEL CONTAINS CONSTANT-HEAD CELLS


 MAXIMUM STEPSIZE DURING WHICH ANY PARTICLE CANNOT MOVE MORE THAN ONE CELL
 =  5.150    (WHEN MIN. R.F.=1)  AT K=   5, I=   1, J=  47

 MAXIMUM STEPSIZE WHICH MEETS STABILITY CRITERION OF THE ADVECTION TERM
 (FOR PURE FINITE-DIFFERENCE OPTION, MIXELM=0) 
 =  3.862    (WHEN MIN. R.F.=1)  AT K=   2, I=   1, J=  41


 TOTAL NUMBER OF POINT SOURCES/SINKS PRESENT IN THE FLOW MODEL =    62

 MAXIMUM STEPSIZE WHICH MEETS STABILITY CRITERION OF THE SINK & SOURCE TERM
 =  262.2    (WHEN MIN. R.F.=1)  AT K=   2, I=   1, J=   1

 MAXIMUM STEPSIZE WHICH MEETS STABILITY CRITERION OF THE DISPERSION TERM
 =  20.29    (WHEN MIN. R.F.=1)  AT K=   1, I=   1, J=  31
     1 CALLS TO GCG PACKAGE FOR TRANSPORT TIME STEP   3 IN FLOW TIME STEP 689 STRESS PERIOD   1
     6 TOTAL ITERATIONS
 
 SOLVING FOR HEAD 
 FLOW MODEL IS TRANSIENT
 FLOW MODEL CONTAINS CONSTANT-HEAD CELLS


 MAXIMUM STEPSIZE DURING WHICH ANY PARTICLE CANNOT MOVE MORE THAN ONE CELL
 =  5.222    (WHEN MIN. R.F.=1)  AT K=   5, I=   1, J=  47

 MAXIMUM STEPSIZE WHICH MEETS STABILITY CRITERION OF THE ADVECTION TERM
 (FOR PURE FINITE-DIFFERENCE OPTION, MIXELM=0) 
 =  4.131    (WHEN MIN. R.F.=1)  AT K=   2, I=   1, J=  41


 TOTAL NUMBER OF POINT SOURCES/SINKS PRESENT IN THE FLOW MODEL =    62

 MAXIMUM STEPSIZE WHICH MEETS STABILITY CRITERION OF THE SINK & SOURCE TERM
 =  252.1    (WHEN MIN. R.F.=1)  AT K=   2, I=   1, J=   1

 MAXIMUM STEPSIZE WHICH MEETS STABILITY CRITERION OF THE DISPERSION TERM
 =  20.29    (WHEN MIN. R.F.=1)  AT K=   1, I=   1, J=  31
     1 CALLS TO GCG PACKAGE FOR TRANSPORT TIME STEP   4 IN FLOW TIME STEP 689 STRESS PERIOD   1
     5 TOTAL ITERATIONS
  MAXIMUM CONCENTRATION CHANGES FOR EACH ITERATION:
  MAX. CHANGE LAYER,ROW,COL MAX. CHANGE LAYER,ROW,COL MAX. CHANGE LAYER,ROW,COL MAX. CHANGE LAYER,ROW,COL MAX. CHANGE LAYER,ROW,COL
 ------------------------------------------------------------------------------------------------------------------------------------
   0.1493E-01 (  2,  1, 83)  0.3400E-03 (  2,  1, 83)  0.8562E-05 (  3,  1, 42)  0.2570E-06 (  3,  1, 45)  0.6562E-08 (  4,  1, 74)


                                          ================================================
                                                         FROM TIME =   6890.0     TO    6900.0    

 
 SOLVING FOR HEAD 
 FLOW MODEL IS TRANSIENT
 FLOW MODEL CONTAINS CONSTANT-HEAD CELLS


 MAXIMUM STEPSIZE DURING WHICH ANY PARTICLE CANNOT MOVE MORE THAN ONE CELL
 =  5.270    (WHEN MIN. R.F.=1)  AT K=   5, I=   1, J=  47

 MAXIMUM STEPSIZE WHICH MEETS STABILITY CRITERION OF THE ADVECTION TERM
 (FOR PURE FINITE-DIFFERENCE OPTION, MIXELM=0) 
 =  4.018    (WHEN MIN. R.F.=1)  AT K=   2, I=   1, J=  42


 TOTAL NUMBER OF POINT SOURCES/SINKS PRESENT IN THE FLOW MODEL =    62

 MAXIMUM STEPSIZE WHICH MEETS STABILITY CRITERION OF THE SINK & SOURCE TERM
 =  254.1    (WHEN MIN. R.F.=1)  AT K=   2, I=   1, J=   1

 MAXIMUM STEPSIZE WHICH MEETS STABILITY CRITERION OF THE DISPERSION TERM
 =  20.29    (WHEN MIN. R.F.=1)  AT K=   1, I=   1, J=  31


     1 CALLS TO GCG PACKAGE FOR TRANSPORT TIME STEP   1 IN FLOW TIME STEP 690 STRESS PERIOD   1
     6 TOTAL ITERATIONS

 NO OUTPUT CONTROL FOR STRESS PERIOD    1   TIME STEP 690
 
 SOLVING FOR HEAD 
 FLOW MODEL IS TRANSIENT
 FLOW MODEL CONTAINS CONSTANT-HEAD CELLS


 MAXIMUM STEPSIZE DURING WHICH ANY PARTICLE CANNOT MOVE MORE THAN ONE CELL
 =  5.404    (WHEN MIN. R.F.=1)  AT K=   5, I=   1, J=  47

 MAXIMUM STEPSIZE WHICH MEETS STABILITY CRITERION OF THE ADVECTION TERM
 (FOR PURE FINITE-DIFFERENCE OPTION, MIXELM=0) 
 =  3.788    (WHEN MIN. R.F.=1)  AT K=   2, I=   1, J=  42


 TOTAL NUMBER OF POINT SOURCES/SINKS PRESENT IN THE FLOW MODEL =    62

 MAXIMUM STEPSIZE WHICH MEETS STABILITY CRITERION OF THE SINK & SOURCE TERM
 =  232.6    (WHEN MIN. R.F.=1)  AT K=   2, I=   1, J=   1

 MAXIMUM STEPSIZE WHICH MEETS STABILITY CRITERION OF THE DISPERSION TERM
 =  20.29    (WHEN MIN. R.F.=1)  AT K=   1, I=   1, J=  31
     1 CALLS TO GCG PACKAGE FOR TRANSPORT TIME STEP   2 IN FLOW TIME STEP 690 STRESS PERIOD   1
     6 TOTAL ITERATIONS
 
 SOLVING FOR HEAD 
 FLOW MODEL IS TRANSIENT
 FLOW MODEL CONTAINS CONSTANT-HEAD CELLS


 MAXIMUM STEPSIZE DURING WHICH ANY PARTICLE CANNOT MOVE MORE THAN ONE CELL
 =  5.543    (WHEN MIN. R.F.=1)  AT K=   6, I=   1, J=  47

 MAXIMUM STEPSIZE WHICH MEETS STABILITY CRITERION OF THE ADVECTION TERM
 (FOR PURE FINITE-DIFFERENCE OPTION, MIXELM=0) 
 =  3.743    (WHEN MIN. R.F.=1)  AT K=   2, I=   1, J=  42


 TOTAL NUMBER OF POINT SOURCES/SINKS PRESENT IN THE FLOW MODEL =    62

 MAXIMUM STEPSIZE WHICH MEETS STABILITY CRITERION OF THE SINK & SOURCE TERM
 =  228.7    (WHEN MIN. R.F.=1)  AT K=   2, I=   1, J=   1

 MAXIMUM STEPSIZE WHICH MEETS STABILITY CRITERION OF THE DISPERSION TERM
 =  20.29    (WHEN MIN. R.F.=1)  AT K=   1, I=   1, J=  31
     1 CALLS TO GCG PACKAGE FOR TRANSPORT TIME STEP   3 IN FLOW TIME STEP 690 STRESS PERIOD   1
     6 TOTAL ITERATIONS
 
 SOLVING FOR HEAD 
 FLOW MODEL IS TRANSIENT
 FLOW MODEL CONTAINS CONSTANT-HEAD CELLS


 MAXIMUM STEPSIZE DURING WHICH ANY PARTICLE CANNOT MOVE MORE THAN ONE CELL
 =  5.372    (WHEN MIN. R.F.=1)  AT K=   4, I=   1, J=  74

 MAXIMUM STEPSIZE WHICH MEETS STABILITY CRITERION OF THE ADVECTION TERM
 (FOR PURE FINITE-DIFFERENCE OPTION, MIXELM=0) 
 =  3.814    (WHEN MIN. R.F.=1)  AT K=   2, I=   1, J=  42


 TOTAL NUMBER OF POINT SOURCES/SINKS PRESENT IN THE FLOW MODEL =    62

 MAXIMUM STEPSIZE WHICH MEETS STABILITY CRITERION OF THE SINK & SOURCE TERM
 =  230.1    (WHEN MIN. R.F.=1)  AT K=   2, I=   1, J=   1

 MAXIMUM STEPSIZE WHICH MEETS STABILITY CRITERION OF THE DISPERSION TERM
 =  20.29    (WHEN MIN. R.F.=1)  AT K=   1, I=   1, J=  31
     1 CALLS TO GCG PACKAGE FOR TRANSPORT TIME STEP   4 IN FLOW TIME STEP 690 STRESS PERIOD   1
     5 TOTAL ITERATIONS
  MAXIMUM CONCENTRATION CHANGES FOR EACH ITERATION:
  MAX. CHANGE LAYER,ROW,COL MAX. CHANGE LAYER,ROW,COL MAX. CHANGE LAYER,ROW,COL MAX. CHANGE LAYER,ROW,COL MAX. CHANGE LAYER,ROW,COL
 ------------------------------------------------------------------------------------------------------------------------------------
   0.1163E-01 (  2,  1, 76)  0.1929E-03 (  2,  1, 82)  0.4634E-05 (  3,  1, 43)  0.1486E-06 (  3,  1, 45)  0.2288E-08 (  4,  1, 45)


                                          ================================================
                                                         FROM TIME =   6900.0     TO    6910.0    

 
 SOLVING FOR HEAD 
 FLOW MODEL IS TRANSIENT
 FLOW MODEL CONTAINS CONSTANT-HEAD CELLS


 MAXIMUM STEPSIZE DURING WHICH ANY PARTICLE CANNOT MOVE MORE THAN ONE CELL
 =  5.305    (WHEN MIN. R.F.=1)  AT K=   4, I=   1, J=  74

 MAXIMUM STEPSIZE WHICH MEETS STABILITY CRITERION OF THE ADVECTION TERM
 (FOR PURE FINITE-DIFFERENCE OPTION, MIXELM=0) 
 =  3.883    (WHEN MIN. R.F.=1)  AT K=   2, I=   1, J=  42


 TOTAL NUMBER OF POINT SOURCES/SINKS PRESENT IN THE FLOW MODEL =    62

 MAXIMUM STEPSIZE WHICH MEETS STABILITY CRITERION OF THE SINK & SOURCE TERM
 =  245.6    (WHEN MIN. R.F.=1)  AT K=   2, I=   1, J=   1

 MAXIMUM STEPSIZE WHICH MEETS STABILITY CRITERION OF THE DISPERSION TERM
 =  20.29    (WHEN MIN. R.F.=1)  AT K=   1, I=   1, J=  31


     1 CALLS TO GCG PACKAGE FOR TRANSPORT TIME STEP   1 IN FLOW TIME STEP 691 STRESS PERIOD   1
     6 TOTAL ITERATIONS

 NO OUTPUT CONTROL FOR STRESS PERIOD    1   TIME STEP 691
 
 SOLVING FOR HEAD 
 FLOW MODEL IS TRANSIENT
 FLOW MODEL CONTAINS CONSTANT-HEAD CELLS


 MAXIMUM STEPSIZE DURING WHICH ANY PARTICLE CANNOT MOVE MORE THAN ONE CELL
 =  5.160    (WHEN MIN. R.F.=1)  AT K=   4, I=   1, J=  74

 MAXIMUM STEPSIZE WHICH MEETS STABILITY CRITERION OF THE ADVECTION TERM
 (FOR PURE FINITE-DIFFERENCE OPTION, MIXELM=0) 
 =  3.947    (WHEN MIN. R.F.=1)  AT K=   2, I=   1, J=  81


 TOTAL NUMBER OF POINT SOURCES/SINKS PRESENT IN THE FLOW MODEL =    62

 MAXIMUM STEPSIZE WHICH MEETS STABILITY CRITERION OF THE SINK & SOURCE TERM
 =  226.4    (WHEN MIN. R.F.=1)  AT K=   2, I=   1, J=   1

 MAXIMUM STEPSIZE WHICH MEETS STABILITY CRITERION OF THE DISPERSION TERM
 =  20.29    (WHEN MIN. R.F.=1)  AT K=   1, I=   1, J=  31
     1 CALLS TO GCG PACKAGE FOR TRANSPORT TIME STEP   2 IN FLOW TIME STEP 691 STRESS PERIOD   1
     6 TOTAL ITERATIONS
 
 SOLVING FOR HEAD 
 FLOW MODEL IS TRANSIENT
 FLOW MODEL CONTAINS CONSTANT-HEAD CELLS


 MAXIMUM STEPSIZE DURING WHICH ANY PARTICLE CANNOT MOVE MORE THAN ONE CELL
 =  5.057    (WHEN MIN. R.F.=1)  AT K=   4, I=   1, J=  74

 MAXIMUM STEPSIZE WHICH MEETS STABILITY CRITERION OF THE ADVECTION TERM
 (FOR PURE FINITE-DIFFERENCE OPTION, MIXELM=0) 
 =  3.917    (WHEN MIN. R.F.=1)  AT K=   2, I=   1, J=  43


 TOTAL NUMBER OF POINT SOURCES/SINKS PRESENT IN THE FLOW MODEL =    62

 MAXIMUM STEPSIZE WHICH MEETS STABILITY CRITERION OF THE SINK & SOURCE TERM
 =  215.7    (WHEN MIN. R.F.=1)  AT K=   2, I=   1, J=   1

 MAXIMUM STEPSIZE WHICH MEETS STABILITY CRITERION OF THE DISPERSION TERM
 =  20.29    (WHEN MIN. R.F.=1)  AT K=   1, I=   1, J=  31
     1 CALLS TO GCG PACKAGE FOR TRANSPORT TIME STEP   3 IN FLOW TIME STEP 691 STRESS PERIOD   1
     6 TOTAL ITERATIONS
 
 SOLVING FOR HEAD 
 FLOW MODEL IS TRANSIENT
 FLOW MODEL CONTAINS CONSTANT-HEAD CELLS


 MAXIMUM STEPSIZE DURING WHICH ANY PARTICLE CANNOT MOVE MORE THAN ONE CELL
 =  5.000    (WHEN MIN. R.F.=1)  AT K=   4, I=   1, J=  74

 MAXIMUM STEPSIZE WHICH MEETS STABILITY CRITERION OF THE ADVECTION TERM
 (FOR PURE FINITE-DIFFERENCE OPTION, MIXELM=0) 
 =  3.799    (WHEN MIN. R.F.=1)  AT K=   2, I=   1, J=  43


 TOTAL NUMBER OF POINT SOURCES/SINKS PRESENT IN THE FLOW MODEL =    62

 MAXIMUM STEPSIZE WHICH MEETS STABILITY CRITERION OF THE SINK & SOURCE TERM
 =  207.3    (WHEN MIN. R.F.=1)  AT K=   2, I=   1, J=   1

 MAXIMUM STEPSIZE WHICH MEETS STABILITY CRITERION OF THE DISPERSION TERM
 =  20.29    (WHEN MIN. R.F.=1)  AT K=   1, I=   1, J=  31
     1 CALLS TO GCG PACKAGE FOR TRANSPORT TIME STEP   4 IN FLOW TIME STEP 691 STRESS PERIOD   1
     5 TOTAL ITERATIONS
  MAXIMUM CONCENTRATION CHANGES FOR EACH ITERATION:
  MAX. CHANGE LAYER,ROW,COL MAX. CHANGE LAYER,ROW,COL MAX. CHANGE LAYER,ROW,COL MAX. CHANGE LAYER,ROW,COL MAX. CHANGE LAYER,ROW,COL
 ------------------------------------------------------------------------------------------------------------------------------------
   0.1372E-01 (  2,  1, 82)  0.2569E-03 (  2,  1, 49)  0.6513E-05 (  3,  1, 44)  0.2355E-06 (  3,  1, 77)  0.6272E-08 ( 29,  1, 22)


                                          ================================================
                                                         FROM TIME =   6910.0     TO    6920.0    

 
 SOLVING FOR HEAD 
 FLOW MODEL IS TRANSIENT
 FLOW MODEL CONTAINS CONSTANT-HEAD CELLS


 MAXIMUM STEPSIZE DURING WHICH ANY PARTICLE CANNOT MOVE MORE THAN ONE CELL
 =  4.991    (WHEN MIN. R.F.=1)  AT K=   4, I=   1, J=  74

 MAXIMUM STEPSIZE WHICH MEETS STABILITY CRITERION OF THE ADVECTION TERM
 (FOR PURE FINITE-DIFFERENCE OPTION, MIXELM=0) 
 =  3.729    (WHEN MIN. R.F.=1)  AT K=   2, I=   1, J=  80


 TOTAL NUMBER OF POINT SOURCES/SINKS PRESENT IN THE FLOW MODEL =    62

 MAXIMUM STEPSIZE WHICH MEETS STABILITY CRITERION OF THE SINK & SOURCE TERM
 =  219.4    (WHEN MIN. R.F.=1)  AT K=   2, I=   1, J=   1

 MAXIMUM STEPSIZE WHICH MEETS STABILITY CRITERION OF THE DISPERSION TERM
 =  20.29    (WHEN MIN. R.F.=1)  AT K=   1, I=   1, J=  31


     1 CALLS TO GCG PACKAGE FOR TRANSPORT TIME STEP   1 IN FLOW TIME STEP 692 STRESS PERIOD   1
     6 TOTAL ITERATIONS

 NO OUTPUT CONTROL FOR STRESS PERIOD    1   TIME STEP 692
 
 SOLVING FOR HEAD 
 FLOW MODEL IS TRANSIENT
 FLOW MODEL CONTAINS CONSTANT-HEAD CELLS


 MAXIMUM STEPSIZE DURING WHICH ANY PARTICLE CANNOT MOVE MORE THAN ONE CELL
 =  4.998    (WHEN MIN. R.F.=1)  AT K=   4, I=   1, J=  74

 MAXIMUM STEPSIZE WHICH MEETS STABILITY CRITERION OF THE ADVECTION TERM
 (FOR PURE FINITE-DIFFERENCE OPTION, MIXELM=0) 
 =  3.647    (WHEN MIN. R.F.=1)  AT K=   2, I=   1, J=  80


 TOTAL NUMBER OF POINT SOURCES/SINKS PRESENT IN THE FLOW MODEL =    62

 MAXIMUM STEPSIZE WHICH MEETS STABILITY CRITERION OF THE SINK & SOURCE TERM
 =  211.0    (WHEN MIN. R.F.=1)  AT K=   2, I=   1, J=   1

 MAXIMUM STEPSIZE WHICH MEETS STABILITY CRITERION OF THE DISPERSION TERM
 =  20.29    (WHEN MIN. R.F.=1)  AT K=   1, I=   1, J=  31
     1 CALLS TO GCG PACKAGE FOR TRANSPORT TIME STEP   2 IN FLOW TIME STEP 692 STRESS PERIOD   1
     6 TOTAL ITERATIONS
 
 SOLVING FOR HEAD 
 FLOW MODEL IS TRANSIENT
 FLOW MODEL CONTAINS CONSTANT-HEAD CELLS


 MAXIMUM STEPSIZE DURING WHICH ANY PARTICLE CANNOT MOVE MORE THAN ONE CELL
 =  5.048    (WHEN MIN. R.F.=1)  AT K=   4, I=   1, J=  74

 MAXIMUM STEPSIZE WHICH MEETS STABILITY CRITERION OF THE ADVECTION TERM
 (FOR PURE FINITE-DIFFERENCE OPTION, MIXELM=0) 
 =  3.718    (WHEN MIN. R.F.=1)  AT K=   2, I=   1, J=  80


 TOTAL NUMBER OF POINT SOURCES/SINKS PRESENT IN THE FLOW MODEL =    62

 MAXIMUM STEPSIZE WHICH MEETS STABILITY CRITERION OF THE SINK & SOURCE TERM
 =  215.9    (WHEN MIN. R.F.=1)  AT K=   2, I=   1, J=   1

 MAXIMUM STEPSIZE WHICH MEETS STABILITY CRITERION OF THE DISPERSION TERM
 =  20.29    (WHEN MIN. R.F.=1)  AT K=   1, I=   1, J=  31
     1 CALLS TO GCG PACKAGE FOR TRANSPORT TIME STEP   3 IN FLOW TIME STEP 692 STRESS PERIOD   1
     6 TOTAL ITERATIONS
 
 SOLVING FOR HEAD 
 FLOW MODEL IS TRANSIENT
 FLOW MODEL CONTAINS CONSTANT-HEAD CELLS


 MAXIMUM STEPSIZE DURING WHICH ANY PARTICLE CANNOT MOVE MORE THAN ONE CELL
 =  5.101    (WHEN MIN. R.F.=1)  AT K=   5, I=   1, J=  74

 MAXIMUM STEPSIZE WHICH MEETS STABILITY CRITERION OF THE ADVECTION TERM
 (FOR PURE FINITE-DIFFERENCE OPTION, MIXELM=0) 
 =  4.021    (WHEN MIN. R.F.=1)  AT K=   2, I=   1, J=  79


 TOTAL NUMBER OF POINT SOURCES/SINKS PRESENT IN THE FLOW MODEL =    62

 MAXIMUM STEPSIZE WHICH MEETS STABILITY CRITERION OF THE SINK & SOURCE TERM
 =  212.2    (WHEN MIN. R.F.=1)  AT K=   2, I=   1, J=   1

 MAXIMUM STEPSIZE WHICH MEETS STABILITY CRITERION OF THE DISPERSION TERM
 =  20.29    (WHEN MIN. R.F.=1)  AT K=   1, I=   1, J=  31
     1 CALLS TO GCG PACKAGE FOR TRANSPORT TIME STEP   4 IN FLOW TIME STEP 692 STRESS PERIOD   1
     5 TOTAL ITERATIONS
  MAXIMUM CONCENTRATION CHANGES FOR EACH ITERATION:
  MAX. CHANGE LAYER,ROW,COL MAX. CHANGE LAYER,ROW,COL MAX. CHANGE LAYER,ROW,COL MAX. CHANGE LAYER,ROW,COL MAX. CHANGE LAYER,ROW,COL
 ------------------------------------------------------------------------------------------------------------------------------------
   0.1986E-01 (  2,  1, 81)  0.4985E-03 (  2,  1, 79)  0.2019E-04 (  3,  1, 79)  0.6139E-06 (  4,  1, 79)  0.1737E-07 (  3,  1, 33)


                                          ================================================
                                                         FROM TIME =   6920.0     TO    6930.0    

 
 SOLVING FOR HEAD 
 FLOW MODEL IS TRANSIENT
 FLOW MODEL CONTAINS CONSTANT-HEAD CELLS


 MAXIMUM STEPSIZE DURING WHICH ANY PARTICLE CANNOT MOVE MORE THAN ONE CELL
 =  5.134    (WHEN MIN. R.F.=1)  AT K=   5, I=   1, J=  74

 MAXIMUM STEPSIZE WHICH MEETS STABILITY CRITERION OF THE ADVECTION TERM
 (FOR PURE FINITE-DIFFERENCE OPTION, MIXELM=0) 
 =  3.829    (WHEN MIN. R.F.=1)  AT K=   2, I=   1, J=  79


 TOTAL NUMBER OF POINT SOURCES/SINKS PRESENT IN THE FLOW MODEL =    62

 MAXIMUM STEPSIZE WHICH MEETS STABILITY CRITERION OF THE SINK & SOURCE TERM
 =  212.2    (WHEN MIN. R.F.=1)  AT K=   2, I=   1, J=   1

 MAXIMUM STEPSIZE WHICH MEETS STABILITY CRITERION OF THE DISPERSION TERM
 =  20.29    (WHEN MIN. R.F.=1)  AT K=   1, I=   1, J=  31


     1 CALLS TO GCG PACKAGE FOR TRANSPORT TIME STEP   1 IN FLOW TIME STEP 693 STRESS PERIOD   1
     6 TOTAL ITERATIONS

 NO OUTPUT CONTROL FOR STRESS PERIOD    1   TIME STEP 693
 
 SOLVING FOR HEAD 
 FLOW MODEL IS TRANSIENT
 FLOW MODEL CONTAINS CONSTANT-HEAD CELLS


 MAXIMUM STEPSIZE DURING WHICH ANY PARTICLE CANNOT MOVE MORE THAN ONE CELL
 =  5.223    (WHEN MIN. R.F.=1)  AT K=   5, I=   1, J=  74

 MAXIMUM STEPSIZE WHICH MEETS STABILITY CRITERION OF THE ADVECTION TERM
 (FOR PURE FINITE-DIFFERENCE OPTION, MIXELM=0) 
 =  3.623    (WHEN MIN. R.F.=1)  AT K=   2, I=   1, J=  79


 TOTAL NUMBER OF POINT SOURCES/SINKS PRESENT IN THE FLOW MODEL =    62

 MAXIMUM STEPSIZE WHICH MEETS STABILITY CRITERION OF THE SINK & SOURCE TERM
 =  203.8    (WHEN MIN. R.F.=1)  AT K=   2, I=   1, J=   1

 MAXIMUM STEPSIZE WHICH MEETS STABILITY CRITERION OF THE DISPERSION TERM
 =  20.29    (WHEN MIN. R.F.=1)  AT K=   1, I=   1, J=  31
     1 CALLS TO GCG PACKAGE FOR TRANSPORT TIME STEP   2 IN FLOW TIME STEP 693 STRESS PERIOD   1
     6 TOTAL ITERATIONS
 
 SOLVING FOR HEAD 
 FLOW MODEL IS TRANSIENT
 FLOW MODEL CONTAINS CONSTANT-HEAD CELLS


 MAXIMUM STEPSIZE DURING WHICH ANY PARTICLE CANNOT MOVE MORE THAN ONE CELL
 =  5.342    (WHEN MIN. R.F.=1)  AT K=   5, I=   1, J=  74

 MAXIMUM STEPSIZE WHICH MEETS STABILITY CRITERION OF THE ADVECTION TERM
 (FOR PURE FINITE-DIFFERENCE OPTION, MIXELM=0) 
 =  3.587    (WHEN MIN. R.F.=1)  AT K=   2, I=   1, J=  79


 TOTAL NUMBER OF POINT SOURCES/SINKS PRESENT IN THE FLOW MODEL =    62

 MAXIMUM STEPSIZE WHICH MEETS STABILITY CRITERION OF THE SINK & SOURCE TERM
 =  205.6    (WHEN MIN. R.F.=1)  AT K=   2, I=   1, J=   1

 MAXIMUM STEPSIZE WHICH MEETS STABILITY CRITERION OF THE DISPERSION TERM
 =  20.29    (WHEN MIN. R.F.=1)  AT K=   1, I=   1, J=  31
     1 CALLS TO GCG PACKAGE FOR TRANSPORT TIME STEP   3 IN FLOW TIME STEP 693 STRESS PERIOD   1
     6 TOTAL ITERATIONS
 
 SOLVING FOR HEAD 
 FLOW MODEL IS TRANSIENT
 FLOW MODEL CONTAINS CONSTANT-HEAD CELLS


 MAXIMUM STEPSIZE DURING WHICH ANY PARTICLE CANNOT MOVE MORE THAN ONE CELL
 =  5.445    (WHEN MIN. R.F.=1)  AT K=   6, I=   1, J=  74

 MAXIMUM STEPSIZE WHICH MEETS STABILITY CRITERION OF THE ADVECTION TERM
 (FOR PURE FINITE-DIFFERENCE OPTION, MIXELM=0) 
 =  3.680    (WHEN MIN. R.F.=1)  AT K=   2, I=   1, J=  79


 TOTAL NUMBER OF POINT SOURCES/SINKS PRESENT IN THE FLOW MODEL =    62

 MAXIMUM STEPSIZE WHICH MEETS STABILITY CRITERION OF THE SINK & SOURCE TERM
 =  207.4    (WHEN MIN. R.F.=1)  AT K=   2, I=   1, J=   1

 MAXIMUM STEPSIZE WHICH MEETS STABILITY CRITERION OF THE DISPERSION TERM
 =  20.29    (WHEN MIN. R.F.=1)  AT K=   1, I=   1, J=  31
     1 CALLS TO GCG PACKAGE FOR TRANSPORT TIME STEP   4 IN FLOW TIME STEP 693 STRESS PERIOD   1
     5 TOTAL ITERATIONS
  MAXIMUM CONCENTRATION CHANGES FOR EACH ITERATION:
  MAX. CHANGE LAYER,ROW,COL MAX. CHANGE LAYER,ROW,COL MAX. CHANGE LAYER,ROW,COL MAX. CHANGE LAYER,ROW,COL MAX. CHANGE LAYER,ROW,COL
 ------------------------------------------------------------------------------------------------------------------------------------
   0.1745E-01 (  2,  1, 80)  0.3411E-03 (  2,  1, 46)  0.1320E-04 (  3,  1, 78)  0.4846E-06 (  3,  1, 76)  0.1011E-07 (  4,  1, 76)


                                          ================================================
                                                         FROM TIME =   6930.0     TO    6940.0    

 
 SOLVING FOR HEAD 
 FLOW MODEL IS TRANSIENT
 FLOW MODEL CONTAINS CONSTANT-HEAD CELLS


 MAXIMUM STEPSIZE DURING WHICH ANY PARTICLE CANNOT MOVE MORE THAN ONE CELL
 =  5.498    (WHEN MIN. R.F.=1)  AT K=   6, I=   1, J=  74

 MAXIMUM STEPSIZE WHICH MEETS STABILITY CRITERION OF THE ADVECTION TERM
 (FOR PURE FINITE-DIFFERENCE OPTION, MIXELM=0) 
 =  3.813    (WHEN MIN. R.F.=1)  AT K=   2, I=   1, J=  79


 TOTAL NUMBER OF POINT SOURCES/SINKS PRESENT IN THE FLOW MODEL =    62

 MAXIMUM STEPSIZE WHICH MEETS STABILITY CRITERION OF THE SINK & SOURCE TERM
 =  214.0    (WHEN MIN. R.F.=1)  AT K=   2, I=   1, J=   1

 MAXIMUM STEPSIZE WHICH MEETS STABILITY CRITERION OF THE DISPERSION TERM
 =  20.29    (WHEN MIN. R.F.=1)  AT K=   1, I=   1, J=  31


     1 CALLS TO GCG PACKAGE FOR TRANSPORT TIME STEP   1 IN FLOW TIME STEP 694 STRESS PERIOD   1
     6 TOTAL ITERATIONS

 NO OUTPUT CONTROL FOR STRESS PERIOD    1   TIME STEP 694
 
 SOLVING FOR HEAD 
 FLOW MODEL IS TRANSIENT
 FLOW MODEL CONTAINS CONSTANT-HEAD CELLS


 MAXIMUM STEPSIZE DURING WHICH ANY PARTICLE CANNOT MOVE MORE THAN ONE CELL
 =  5.623    (WHEN MIN. R.F.=1)  AT K=   6, I=   1, J=  74

 MAXIMUM STEPSIZE WHICH MEETS STABILITY CRITERION OF THE ADVECTION TERM
 (FOR PURE FINITE-DIFFERENCE OPTION, MIXELM=0) 
 =  4.022    (WHEN MIN. R.F.=1)  AT K=   2, I=   1, J=  78


 TOTAL NUMBER OF POINT SOURCES/SINKS PRESENT IN THE FLOW MODEL =    62

 MAXIMUM STEPSIZE WHICH MEETS STABILITY CRITERION OF THE SINK & SOURCE TERM
 =  203.5    (WHEN MIN. R.F.=1)  AT K=   2, I=   1, J=   1

 MAXIMUM STEPSIZE WHICH MEETS STABILITY CRITERION OF THE DISPERSION TERM
 =  20.29    (WHEN MIN. R.F.=1)  AT K=   1, I=   1, J=  31
     1 CALLS TO GCG PACKAGE FOR TRANSPORT TIME STEP   2 IN FLOW TIME STEP 694 STRESS PERIOD   1
     6 TOTAL ITERATIONS
 
 SOLVING FOR HEAD 
 FLOW MODEL IS TRANSIENT
 FLOW MODEL CONTAINS CONSTANT-HEAD CELLS


 MAXIMUM STEPSIZE DURING WHICH ANY PARTICLE CANNOT MOVE MORE THAN ONE CELL
 =  5.731    (WHEN MIN. R.F.=1)  AT K=  28, I=   1, J=  52

 MAXIMUM STEPSIZE WHICH MEETS STABILITY CRITERION OF THE ADVECTION TERM
 (FOR PURE FINITE-DIFFERENCE OPTION, MIXELM=0) 
 =  3.762    (WHEN MIN. R.F.=1)  AT K=   2, I=   1, J=  78


 TOTAL NUMBER OF POINT SOURCES/SINKS PRESENT IN THE FLOW MODEL =    62

 MAXIMUM STEPSIZE WHICH MEETS STABILITY CRITERION OF THE SINK & SOURCE TERM
 =  195.4    (WHEN MIN. R.F.=1)  AT K=   2, I=   1, J=   1

 MAXIMUM STEPSIZE WHICH MEETS STABILITY CRITERION OF THE DISPERSION TERM
 =  20.29    (WHEN MIN. R.F.=1)  AT K=   1, I=   1, J=  31
     1 CALLS TO GCG PACKAGE FOR TRANSPORT TIME STEP   3 IN FLOW TIME STEP 694 STRESS PERIOD   1
     6 TOTAL ITERATIONS
 
 SOLVING FOR HEAD 
 FLOW MODEL IS TRANSIENT
 FLOW MODEL CONTAINS CONSTANT-HEAD CELLS


 MAXIMUM STEPSIZE DURING WHICH ANY PARTICLE CANNOT MOVE MORE THAN ONE CELL
 =  5.727    (WHEN MIN. R.F.=1)  AT K=  28, I=   1, J=  52

 MAXIMUM STEPSIZE WHICH MEETS STABILITY CRITERION OF THE ADVECTION TERM
 (FOR PURE FINITE-DIFFERENCE OPTION, MIXELM=0) 
 =  3.661    (WHEN MIN. R.F.=1)  AT K=   2, I=   1, J=  78


 TOTAL NUMBER OF POINT SOURCES/SINKS PRESENT IN THE FLOW MODEL =    62

 MAXIMUM STEPSIZE WHICH MEETS STABILITY CRITERION OF THE SINK & SOURCE TERM
 =  190.6    (WHEN MIN. R.F.=1)  AT K=   2, I=   1, J=   1

 MAXIMUM STEPSIZE WHICH MEETS STABILITY CRITERION OF THE DISPERSION TERM
 =  20.29    (WHEN MIN. R.F.=1)  AT K=   1, I=   1, J=  31
     1 CALLS TO GCG PACKAGE FOR TRANSPORT TIME STEP   4 IN FLOW TIME STEP 694 STRESS PERIOD   1
     5 TOTAL ITERATIONS
  MAXIMUM CONCENTRATION CHANGES FOR EACH ITERATION:
  MAX. CHANGE LAYER,ROW,COL MAX. CHANGE LAYER,ROW,COL MAX. CHANGE LAYER,ROW,COL MAX. CHANGE LAYER,ROW,COL MAX. CHANGE LAYER,ROW,COL
 ------------------------------------------------------------------------------------------------------------------------------------
   0.1486E-01 (  2,  1, 79)  0.3416E-03 (  2,  1, 79)  0.9199E-05 (  2,  1, 80)  0.2792E-06 (  3,  1, 80)  0.7470E-08 (  3,  1, 88)


                                          ================================================
                                                         FROM TIME =   6940.0     TO    6950.0    

 
 SOLVING FOR HEAD 
 FLOW MODEL IS TRANSIENT
 FLOW MODEL CONTAINS CONSTANT-HEAD CELLS


 MAXIMUM STEPSIZE DURING WHICH ANY PARTICLE CANNOT MOVE MORE THAN ONE CELL
 =  5.732    (WHEN MIN. R.F.=1)  AT K=  28, I=   1, J=  52

 MAXIMUM STEPSIZE WHICH MEETS STABILITY CRITERION OF THE ADVECTION TERM
 (FOR PURE FINITE-DIFFERENCE OPTION, MIXELM=0) 
 =  3.668    (WHEN MIN. R.F.=1)  AT K=   2, I=   1, J=  78


 TOTAL NUMBER OF POINT SOURCES/SINKS PRESENT IN THE FLOW MODEL =    62

 MAXIMUM STEPSIZE WHICH MEETS STABILITY CRITERION OF THE SINK & SOURCE TERM
 =  197.6    (WHEN MIN. R.F.=1)  AT K=   2, I=   1, J=   1

 MAXIMUM STEPSIZE WHICH MEETS STABILITY CRITERION OF THE DISPERSION TERM
 =  20.29    (WHEN MIN. R.F.=1)  AT K=   1, I=   1, J=  31


     1 CALLS TO GCG PACKAGE FOR TRANSPORT TIME STEP   1 IN FLOW TIME STEP 695 STRESS PERIOD   1
     6 TOTAL ITERATIONS

 NO OUTPUT CONTROL FOR STRESS PERIOD    1   TIME STEP 695
 
 SOLVING FOR HEAD 
 FLOW MODEL IS TRANSIENT
 FLOW MODEL CONTAINS CONSTANT-HEAD CELLS


 MAXIMUM STEPSIZE DURING WHICH ANY PARTICLE CANNOT MOVE MORE THAN ONE CELL
 =  5.731    (WHEN MIN. R.F.=1)  AT K=  28, I=   1, J=  52

 MAXIMUM STEPSIZE WHICH MEETS STABILITY CRITERION OF THE ADVECTION TERM
 (FOR PURE FINITE-DIFFERENCE OPTION, MIXELM=0) 
 =  3.752    (WHEN MIN. R.F.=1)  AT K=   2, I=   1, J=  78


 TOTAL NUMBER OF POINT SOURCES/SINKS PRESENT IN THE FLOW MODEL =    62

 MAXIMUM STEPSIZE WHICH MEETS STABILITY CRITERION OF THE SINK & SOURCE TERM
 =  192.3    (WHEN MIN. R.F.=1)  AT K=   2, I=   1, J=   1

 MAXIMUM STEPSIZE WHICH MEETS STABILITY CRITERION OF THE DISPERSION TERM
 =  20.29    (WHEN MIN. R.F.=1)  AT K=   1, I=   1, J=  31
     1 CALLS TO GCG PACKAGE FOR TRANSPORT TIME STEP   2 IN FLOW TIME STEP 695 STRESS PERIOD   1
     6 TOTAL ITERATIONS
 
 SOLVING FOR HEAD 
 FLOW MODEL IS TRANSIENT
 FLOW MODEL CONTAINS CONSTANT-HEAD CELLS


 MAXIMUM STEPSIZE DURING WHICH ANY PARTICLE CANNOT MOVE MORE THAN ONE CELL
 =  5.731    (WHEN MIN. R.F.=1)  AT K=  28, I=   1, J=  52

 MAXIMUM STEPSIZE WHICH MEETS STABILITY CRITERION OF THE ADVECTION TERM
 (FOR PURE FINITE-DIFFERENCE OPTION, MIXELM=0) 
 =  3.988    (WHEN MIN. R.F.=1)  AT K=   2, I=   1, J=  78


 TOTAL NUMBER OF POINT SOURCES/SINKS PRESENT IN THE FLOW MODEL =    62

 MAXIMUM STEPSIZE WHICH MEETS STABILITY CRITERION OF THE SINK & SOURCE TERM
 =  189.7    (WHEN MIN. R.F.=1)  AT K=   2, I=   1, J=   1

 MAXIMUM STEPSIZE WHICH MEETS STABILITY CRITERION OF THE DISPERSION TERM
 =  20.29    (WHEN MIN. R.F.=1)  AT K=   1, I=   1, J=  31
     1 CALLS TO GCG PACKAGE FOR TRANSPORT TIME STEP   3 IN FLOW TIME STEP 695 STRESS PERIOD   1
     6 TOTAL ITERATIONS
 
 SOLVING FOR HEAD 
 FLOW MODEL IS TRANSIENT
 FLOW MODEL CONTAINS CONSTANT-HEAD CELLS


 MAXIMUM STEPSIZE DURING WHICH ANY PARTICLE CANNOT MOVE MORE THAN ONE CELL
 =  5.730    (WHEN MIN. R.F.=1)  AT K=  28, I=   1, J=  52

 MAXIMUM STEPSIZE WHICH MEETS STABILITY CRITERION OF THE ADVECTION TERM
 (FOR PURE FINITE-DIFFERENCE OPTION, MIXELM=0) 
 =  4.213    (WHEN MIN. R.F.=1)  AT K=   2, I=   1, J=  77


 TOTAL NUMBER OF POINT SOURCES/SINKS PRESENT IN THE FLOW MODEL =    62

 MAXIMUM STEPSIZE WHICH MEETS STABILITY CRITERION OF THE SINK & SOURCE TERM
 =  183.3    (WHEN MIN. R.F.=1)  AT K=   2, I=   1, J=   1

 MAXIMUM STEPSIZE WHICH MEETS STABILITY CRITERION OF THE DISPERSION TERM
 =  20.29    (WHEN MIN. R.F.=1)  AT K=   1, I=   1, J=  31
     1 CALLS TO GCG PACKAGE FOR TRANSPORT TIME STEP   4 IN FLOW TIME STEP 695 STRESS PERIOD   1
     5 TOTAL ITERATIONS
  MAXIMUM CONCENTRATION CHANGES FOR EACH ITERATION:
  MAX. CHANGE LAYER,ROW,COL MAX. CHANGE LAYER,ROW,COL MAX. CHANGE LAYER,ROW,COL MAX. CHANGE LAYER,ROW,COL MAX. CHANGE LAYER,ROW,COL
 ------------------------------------------------------------------------------------------------------------------------------------
   0.1891E-01 (  2,  1, 79)  0.6366E-03 (  2,  1, 77)  0.1986E-04 (  3,  1, 77)  0.7020E-06 (  3,  1, 43)  0.2131E-07 (  5,  1, 80)


                                          ================================================
                                                         FROM TIME =   6950.0     TO    6960.0    

 
 SOLVING FOR HEAD 
 FLOW MODEL IS TRANSIENT
 FLOW MODEL CONTAINS CONSTANT-HEAD CELLS


 MAXIMUM STEPSIZE DURING WHICH ANY PARTICLE CANNOT MOVE MORE THAN ONE CELL
 =  5.733    (WHEN MIN. R.F.=1)  AT K=  28, I=   1, J=  52

 MAXIMUM STEPSIZE WHICH MEETS STABILITY CRITERION OF THE ADVECTION TERM
 (FOR PURE FINITE-DIFFERENCE OPTION, MIXELM=0) 
 =  4.057    (WHEN MIN. R.F.=1)  AT K=   2, I=   1, J=  77


 TOTAL NUMBER OF POINT SOURCES/SINKS PRESENT IN THE FLOW MODEL =    62

 MAXIMUM STEPSIZE WHICH MEETS STABILITY CRITERION OF THE SINK & SOURCE TERM
 =  180.7    (WHEN MIN. R.F.=1)  AT K=   2, I=   1, J=   1

 MAXIMUM STEPSIZE WHICH MEETS STABILITY CRITERION OF THE DISPERSION TERM
 =  20.29    (WHEN MIN. R.F.=1)  AT K=   1, I=   1, J=  31


     1 CALLS TO GCG PACKAGE FOR TRANSPORT TIME STEP   1 IN FLOW TIME STEP 696 STRESS PERIOD   1
     6 TOTAL ITERATIONS

 NO OUTPUT CONTROL FOR STRESS PERIOD    1   TIME STEP 696



 >>>>>>>>>>>>>>>>>>>>>>>>>>>>>>>>>>>>>>>>>>>>>>>>>>>>>>>FOR COMPONENT NO. 01<<<<<<<<<<<<<<<<<<<<<<<<<<<<<<<<<<<<<<<<<<<<<<<<<<<<<<<


                                            -------------------------------------------
                                                      TRANSPORT STEP NO.    1
                                            -------------------------------------------

 TOTAL ELAPSED TIME SINCE BEGINNING OF SIMULATION =   6952.800    D   
 .....................................................................

                     CUMULATIVE MASS BUDGETS AT END OF TRANSPORT STEP    1, TIME STEP  696, STRESS PERIOD    1
                     ------------------------------------------------------------------------------------------

                                                             IN                           OUT
                                                      ----------------             ----------------
                               CONSTANT CONCENTRATION:    3949324.                   -3024211.    
                                        CONSTANT HEAD:    0.000000                   -1310.768    
                               MASS STOR (FLOW MODEL):    471.3336                   -661.1164    
                                MASS STORAGE (SOLUTE):    7114765.                   -8038378.    
                            ---------------------------------------------------------------------------
                                              [TOTAL]:   0.1106456E+08 KG           -0.1106456E+08 KG  

                                                          NET (IN - OUT):  -0.2392902E-01
                                                   DISCREPANCY (PERCENT):  -0.2162672E-06
 
 SOLVING FOR HEAD 
 FLOW MODEL IS TRANSIENT
 FLOW MODEL CONTAINS CONSTANT-HEAD CELLS


 MAXIMUM STEPSIZE DURING WHICH ANY PARTICLE CANNOT MOVE MORE THAN ONE CELL
 =  5.733    (WHEN MIN. R.F.=1)  AT K=  28, I=   1, J=  52

 MAXIMUM STEPSIZE WHICH MEETS STABILITY CRITERION OF THE ADVECTION TERM
 (FOR PURE FINITE-DIFFERENCE OPTION, MIXELM=0) 
 =  3.902    (WHEN MIN. R.F.=1)  AT K=   2, I=   1, J=  77


 TOTAL NUMBER OF POINT SOURCES/SINKS PRESENT IN THE FLOW MODEL =    62

 MAXIMUM STEPSIZE WHICH MEETS STABILITY CRITERION OF THE SINK & SOURCE TERM
 =  174.5    (WHEN MIN. R.F.=1)  AT K=   2, I=   1, J=   1

 MAXIMUM STEPSIZE WHICH MEETS STABILITY CRITERION OF THE DISPERSION TERM
 =  20.29    (WHEN MIN. R.F.=1)  AT K=   1, I=   1, J=  31
     1 CALLS TO GCG PACKAGE FOR TRANSPORT TIME STEP   2 IN FLOW TIME STEP 696 STRESS PERIOD   1
     6 TOTAL ITERATIONS
 
 SOLVING FOR HEAD 
 FLOW MODEL IS TRANSIENT
 FLOW MODEL CONTAINS CONSTANT-HEAD CELLS


 MAXIMUM STEPSIZE DURING WHICH ANY PARTICLE CANNOT MOVE MORE THAN ONE CELL
 =  5.730    (WHEN MIN. R.F.=1)  AT K=  28, I=   1, J=  52

 MAXIMUM STEPSIZE WHICH MEETS STABILITY CRITERION OF THE ADVECTION TERM
 (FOR PURE FINITE-DIFFERENCE OPTION, MIXELM=0) 
 =  3.870    (WHEN MIN. R.F.=1)  AT K=   2, I=   1, J=  77


 TOTAL NUMBER OF POINT SOURCES/SINKS PRESENT IN THE FLOW MODEL =    62

 MAXIMUM STEPSIZE WHICH MEETS STABILITY CRITERION OF THE SINK & SOURCE TERM
 =  173.5    (WHEN MIN. R.F.=1)  AT K=   2, I=   1, J=   1

 MAXIMUM STEPSIZE WHICH MEETS STABILITY CRITERION OF THE DISPERSION TERM
 =  20.29    (WHEN MIN. R.F.=1)  AT K=   1, I=   1, J=  31
     1 CALLS TO GCG PACKAGE FOR TRANSPORT TIME STEP   3 IN FLOW TIME STEP 696 STRESS PERIOD   1
     6 TOTAL ITERATIONS
 
 SOLVING FOR HEAD 
 FLOW MODEL IS TRANSIENT
 FLOW MODEL CONTAINS CONSTANT-HEAD CELLS


 MAXIMUM STEPSIZE DURING WHICH ANY PARTICLE CANNOT MOVE MORE THAN ONE CELL
 =  5.728    (WHEN MIN. R.F.=1)  AT K=  28, I=   1, J=  52

 MAXIMUM STEPSIZE WHICH MEETS STABILITY CRITERION OF THE ADVECTION TERM
 (FOR PURE FINITE-DIFFERENCE OPTION, MIXELM=0) 
 =  3.947    (WHEN MIN. R.F.=1)  AT K=   2, I=   1, J=  77


 TOTAL NUMBER OF POINT SOURCES/SINKS PRESENT IN THE FLOW MODEL =    62

 MAXIMUM STEPSIZE WHICH MEETS STABILITY CRITERION OF THE SINK & SOURCE TERM
 =  171.2    (WHEN MIN. R.F.=1)  AT K=   2, I=   1, J=   1

 MAXIMUM STEPSIZE WHICH MEETS STABILITY CRITERION OF THE DISPERSION TERM
 =  20.29    (WHEN MIN. R.F.=1)  AT K=   1, I=   1, J=  31
     1 CALLS TO GCG PACKAGE FOR TRANSPORT TIME STEP   4 IN FLOW TIME STEP 696 STRESS PERIOD   1
     5 TOTAL ITERATIONS
  MAXIMUM CONCENTRATION CHANGES FOR EACH ITERATION:
  MAX. CHANGE LAYER,ROW,COL MAX. CHANGE LAYER,ROW,COL MAX. CHANGE LAYER,ROW,COL MAX. CHANGE LAYER,ROW,COL MAX. CHANGE LAYER,ROW,COL
 ------------------------------------------------------------------------------------------------------------------------------------
   0.1527E-01 (  2,  1, 78)  0.2910E-03 (  2,  1, 78)  0.7873E-05 (  2,  1, 79)  0.2350E-06 (  3,  1, 79)  0.4676E-08 (  4,  1, 78)


                                          ================================================
                                                         FROM TIME =   6960.0     TO    6970.0    

 
 SOLVING FOR HEAD 
 FLOW MODEL IS TRANSIENT
 FLOW MODEL CONTAINS CONSTANT-HEAD CELLS


 MAXIMUM STEPSIZE DURING WHICH ANY PARTICLE CANNOT MOVE MORE THAN ONE CELL
 =  5.732    (WHEN MIN. R.F.=1)  AT K=  28, I=   1, J=  52

 MAXIMUM STEPSIZE WHICH MEETS STABILITY CRITERION OF THE ADVECTION TERM
 (FOR PURE FINITE-DIFFERENCE OPTION, MIXELM=0) 
 =  4.033    (WHEN MIN. R.F.=1)  AT K=   2, I=   1, J=  77


 TOTAL NUMBER OF POINT SOURCES/SINKS PRESENT IN THE FLOW MODEL =    62

 MAXIMUM STEPSIZE WHICH MEETS STABILITY CRITERION OF THE SINK & SOURCE TERM
 =  171.8    (WHEN MIN. R.F.=1)  AT K=   2, I=   1, J=   1

 MAXIMUM STEPSIZE WHICH MEETS STABILITY CRITERION OF THE DISPERSION TERM
 =  20.29    (WHEN MIN. R.F.=1)  AT K=   1, I=   1, J=  31


     1 CALLS TO GCG PACKAGE FOR TRANSPORT TIME STEP   1 IN FLOW TIME STEP 697 STRESS PERIOD   1
     6 TOTAL ITERATIONS

 NO OUTPUT CONTROL FOR STRESS PERIOD    1   TIME STEP 697
 
 SOLVING FOR HEAD 
 FLOW MODEL IS TRANSIENT
 FLOW MODEL CONTAINS CONSTANT-HEAD CELLS


 MAXIMUM STEPSIZE DURING WHICH ANY PARTICLE CANNOT MOVE MORE THAN ONE CELL
 =  5.687    (WHEN MIN. R.F.=1)  AT K=   4, I=   1, J=  47

 MAXIMUM STEPSIZE WHICH MEETS STABILITY CRITERION OF THE ADVECTION TERM
 (FOR PURE FINITE-DIFFERENCE OPTION, MIXELM=0) 
 =  4.364    (WHEN MIN. R.F.=1)  AT K=   2, I=   1, J=  77


 TOTAL NUMBER OF POINT SOURCES/SINKS PRESENT IN THE FLOW MODEL =    62

 MAXIMUM STEPSIZE WHICH MEETS STABILITY CRITERION OF THE SINK & SOURCE TERM
 =  162.6    (WHEN MIN. R.F.=1)  AT K=   2, I=   1, J=   1

 MAXIMUM STEPSIZE WHICH MEETS STABILITY CRITERION OF THE DISPERSION TERM
 =  20.29    (WHEN MIN. R.F.=1)  AT K=   1, I=   1, J=  31
     1 CALLS TO GCG PACKAGE FOR TRANSPORT TIME STEP   2 IN FLOW TIME STEP 697 STRESS PERIOD   1
     6 TOTAL ITERATIONS
 
 SOLVING FOR HEAD 
 FLOW MODEL IS TRANSIENT
 FLOW MODEL CONTAINS CONSTANT-HEAD CELLS


 MAXIMUM STEPSIZE DURING WHICH ANY PARTICLE CANNOT MOVE MORE THAN ONE CELL
 =  5.401    (WHEN MIN. R.F.=1)  AT K=   4, I=   1, J=  47

 MAXIMUM STEPSIZE WHICH MEETS STABILITY CRITERION OF THE ADVECTION TERM
 (FOR PURE FINITE-DIFFERENCE OPTION, MIXELM=0) 
 =  4.219    (WHEN MIN. R.F.=1)  AT K=   2, I=   1, J=  40


 TOTAL NUMBER OF POINT SOURCES/SINKS PRESENT IN THE FLOW MODEL =    62

 MAXIMUM STEPSIZE WHICH MEETS STABILITY CRITERION OF THE SINK & SOURCE TERM
 =  160.1    (WHEN MIN. R.F.=1)  AT K=   2, I=   1, J=   1

 MAXIMUM STEPSIZE WHICH MEETS STABILITY CRITERION OF THE DISPERSION TERM
 =  20.29    (WHEN MIN. R.F.=1)  AT K=   1, I=   1, J=  31
     1 CALLS TO GCG PACKAGE FOR TRANSPORT TIME STEP   3 IN FLOW TIME STEP 697 STRESS PERIOD   1
     6 TOTAL ITERATIONS
 
 SOLVING FOR HEAD 
 FLOW MODEL IS TRANSIENT
 FLOW MODEL CONTAINS CONSTANT-HEAD CELLS


 MAXIMUM STEPSIZE DURING WHICH ANY PARTICLE CANNOT MOVE MORE THAN ONE CELL
 =  5.186    (WHEN MIN. R.F.=1)  AT K=   4, I=   1, J=  47

 MAXIMUM STEPSIZE WHICH MEETS STABILITY CRITERION OF THE ADVECTION TERM
 (FOR PURE FINITE-DIFFERENCE OPTION, MIXELM=0) 
 =  4.059    (WHEN MIN. R.F.=1)  AT K=   2, I=   1, J=  40


 TOTAL NUMBER OF POINT SOURCES/SINKS PRESENT IN THE FLOW MODEL =    62

 MAXIMUM STEPSIZE WHICH MEETS STABILITY CRITERION OF THE SINK & SOURCE TERM
 =  157.5    (WHEN MIN. R.F.=1)  AT K=   2, I=   1, J=   1

 MAXIMUM STEPSIZE WHICH MEETS STABILITY CRITERION OF THE DISPERSION TERM
 =  20.29    (WHEN MIN. R.F.=1)  AT K=   1, I=   1, J=  31
     1 CALLS TO GCG PACKAGE FOR TRANSPORT TIME STEP   4 IN FLOW TIME STEP 697 STRESS PERIOD   1
     4 TOTAL ITERATIONS
  MAXIMUM CONCENTRATION CHANGES FOR EACH ITERATION:
  MAX. CHANGE LAYER,ROW,COL MAX. CHANGE LAYER,ROW,COL MAX. CHANGE LAYER,ROW,COL MAX. CHANGE LAYER,ROW,COL MAX. CHANGE LAYER,ROW,COL
 ------------------------------------------------------------------------------------------------------------------------------------
   0.7680E-02 (  2,  1, 31)  0.1046E-03 (  2,  1, 76)  0.1322E-05 (  2,  1, 76)  0.2399E-07 (  3,  1, 75)


                                          ================================================
                                                         FROM TIME =   6970.0     TO    6980.0    

 
 SOLVING FOR HEAD 
 FLOW MODEL IS TRANSIENT
 FLOW MODEL CONTAINS CONSTANT-HEAD CELLS


 MAXIMUM STEPSIZE DURING WHICH ANY PARTICLE CANNOT MOVE MORE THAN ONE CELL
 =  5.149    (WHEN MIN. R.F.=1)  AT K=   4, I=   1, J=  47

 MAXIMUM STEPSIZE WHICH MEETS STABILITY CRITERION OF THE ADVECTION TERM
 (FOR PURE FINITE-DIFFERENCE OPTION, MIXELM=0) 
 =  4.062    (WHEN MIN. R.F.=1)  AT K=   2, I=   1, J=  40


 TOTAL NUMBER OF POINT SOURCES/SINKS PRESENT IN THE FLOW MODEL =    62

 MAXIMUM STEPSIZE WHICH MEETS STABILITY CRITERION OF THE SINK & SOURCE TERM
 =  164.6    (WHEN MIN. R.F.=1)  AT K=   2, I=   1, J=   1

 MAXIMUM STEPSIZE WHICH MEETS STABILITY CRITERION OF THE DISPERSION TERM
 =  20.29    (WHEN MIN. R.F.=1)  AT K=   1, I=   1, J=  31


     1 CALLS TO GCG PACKAGE FOR TRANSPORT TIME STEP   1 IN FLOW TIME STEP 698 STRESS PERIOD   1
     6 TOTAL ITERATIONS

 NO OUTPUT CONTROL FOR STRESS PERIOD    1   TIME STEP 698
 
 SOLVING FOR HEAD 
 FLOW MODEL IS TRANSIENT
 FLOW MODEL CONTAINS CONSTANT-HEAD CELLS


 MAXIMUM STEPSIZE DURING WHICH ANY PARTICLE CANNOT MOVE MORE THAN ONE CELL
 =  5.045    (WHEN MIN. R.F.=1)  AT K=   4, I=   1, J=  47

 MAXIMUM STEPSIZE WHICH MEETS STABILITY CRITERION OF THE ADVECTION TERM
 (FOR PURE FINITE-DIFFERENCE OPTION, MIXELM=0) 
 =  4.207    (WHEN MIN. R.F.=1)  AT K=   2, I=   1, J=  40


 TOTAL NUMBER OF POINT SOURCES/SINKS PRESENT IN THE FLOW MODEL =    62

 MAXIMUM STEPSIZE WHICH MEETS STABILITY CRITERION OF THE SINK & SOURCE TERM
 =  157.0    (WHEN MIN. R.F.=1)  AT K=   2, I=   1, J=   1

 MAXIMUM STEPSIZE WHICH MEETS STABILITY CRITERION OF THE DISPERSION TERM
 =  20.29    (WHEN MIN. R.F.=1)  AT K=   1, I=   1, J=  31
     1 CALLS TO GCG PACKAGE FOR TRANSPORT TIME STEP   2 IN FLOW TIME STEP 698 STRESS PERIOD   1
     6 TOTAL ITERATIONS
 
 SOLVING FOR HEAD 
 FLOW MODEL IS TRANSIENT
 FLOW MODEL CONTAINS CONSTANT-HEAD CELLS


 MAXIMUM STEPSIZE DURING WHICH ANY PARTICLE CANNOT MOVE MORE THAN ONE CELL
 =  5.010    (WHEN MIN. R.F.=1)  AT K=   4, I=   1, J=  47

 MAXIMUM STEPSIZE WHICH MEETS STABILITY CRITERION OF THE ADVECTION TERM
 (FOR PURE FINITE-DIFFERENCE OPTION, MIXELM=0) 
 =  4.056    (WHEN MIN. R.F.=1)  AT K=   2, I=   1, J=  41


 TOTAL NUMBER OF POINT SOURCES/SINKS PRESENT IN THE FLOW MODEL =    62

 MAXIMUM STEPSIZE WHICH MEETS STABILITY CRITERION OF THE SINK & SOURCE TERM
 =  150.2    (WHEN MIN. R.F.=1)  AT K=   2, I=   1, J=   1

 MAXIMUM STEPSIZE WHICH MEETS STABILITY CRITERION OF THE DISPERSION TERM
 =  20.29    (WHEN MIN. R.F.=1)  AT K=   1, I=   1, J=  31
     1 CALLS TO GCG PACKAGE FOR TRANSPORT TIME STEP   3 IN FLOW TIME STEP 698 STRESS PERIOD   1
     6 TOTAL ITERATIONS
 
 SOLVING FOR HEAD 
 FLOW MODEL IS TRANSIENT
 FLOW MODEL CONTAINS CONSTANT-HEAD CELLS


 MAXIMUM STEPSIZE DURING WHICH ANY PARTICLE CANNOT MOVE MORE THAN ONE CELL
 =  5.036    (WHEN MIN. R.F.=1)  AT K=   4, I=   1, J=  47

 MAXIMUM STEPSIZE WHICH MEETS STABILITY CRITERION OF THE ADVECTION TERM
 (FOR PURE FINITE-DIFFERENCE OPTION, MIXELM=0) 
 =  3.830    (WHEN MIN. R.F.=1)  AT K=   2, I=   1, J=  41


 TOTAL NUMBER OF POINT SOURCES/SINKS PRESENT IN THE FLOW MODEL =    62

 MAXIMUM STEPSIZE WHICH MEETS STABILITY CRITERION OF THE SINK & SOURCE TERM
 =  146.8    (WHEN MIN. R.F.=1)  AT K=   2, I=   1, J=   1

 MAXIMUM STEPSIZE WHICH MEETS STABILITY CRITERION OF THE DISPERSION TERM
 =  20.29    (WHEN MIN. R.F.=1)  AT K=   1, I=   1, J=  31
     1 CALLS TO GCG PACKAGE FOR TRANSPORT TIME STEP   4 IN FLOW TIME STEP 698 STRESS PERIOD   1
     4 TOTAL ITERATIONS
  MAXIMUM CONCENTRATION CHANGES FOR EACH ITERATION:
  MAX. CHANGE LAYER,ROW,COL MAX. CHANGE LAYER,ROW,COL MAX. CHANGE LAYER,ROW,COL MAX. CHANGE LAYER,ROW,COL MAX. CHANGE LAYER,ROW,COL
 ------------------------------------------------------------------------------------------------------------------------------------
   0.8987E-02 (  2,  1, 77)  0.8926E-04 (  3,  1, 79)  0.1708E-05 (  2,  1, 78)  0.3467E-07 (  3,  1, 78)


                                          ================================================
                                                         FROM TIME =   6980.0     TO    6990.0    

 
 SOLVING FOR HEAD 
 FLOW MODEL IS TRANSIENT
 FLOW MODEL CONTAINS CONSTANT-HEAD CELLS


 MAXIMUM STEPSIZE DURING WHICH ANY PARTICLE CANNOT MOVE MORE THAN ONE CELL
 =  5.053    (WHEN MIN. R.F.=1)  AT K=   4, I=   1, J=  47

 MAXIMUM STEPSIZE WHICH MEETS STABILITY CRITERION OF THE ADVECTION TERM
 (FOR PURE FINITE-DIFFERENCE OPTION, MIXELM=0) 
 =  3.807    (WHEN MIN. R.F.=1)  AT K=   2, I=   1, J=  41


 TOTAL NUMBER OF POINT SOURCES/SINKS PRESENT IN THE FLOW MODEL =    62

 MAXIMUM STEPSIZE WHICH MEETS STABILITY CRITERION OF THE SINK & SOURCE TERM
 =  153.7    (WHEN MIN. R.F.=1)  AT K=   2, I=   1, J=   1

 MAXIMUM STEPSIZE WHICH MEETS STABILITY CRITERION OF THE DISPERSION TERM
 =  20.29    (WHEN MIN. R.F.=1)  AT K=   1, I=   1, J=  31


     1 CALLS TO GCG PACKAGE FOR TRANSPORT TIME STEP   1 IN FLOW TIME STEP 699 STRESS PERIOD   1
     6 TOTAL ITERATIONS

 NO OUTPUT CONTROL FOR STRESS PERIOD    1   TIME STEP 699
 
 SOLVING FOR HEAD 
 FLOW MODEL IS TRANSIENT
 FLOW MODEL CONTAINS CONSTANT-HEAD CELLS


 MAXIMUM STEPSIZE DURING WHICH ANY PARTICLE CANNOT MOVE MORE THAN ONE CELL
 =  5.122    (WHEN MIN. R.F.=1)  AT K=   5, I=   1, J=  47

 MAXIMUM STEPSIZE WHICH MEETS STABILITY CRITERION OF THE ADVECTION TERM
 (FOR PURE FINITE-DIFFERENCE OPTION, MIXELM=0) 
 =  3.805    (WHEN MIN. R.F.=1)  AT K=   2, I=   1, J=  41


 TOTAL NUMBER OF POINT SOURCES/SINKS PRESENT IN THE FLOW MODEL =    62

 MAXIMUM STEPSIZE WHICH MEETS STABILITY CRITERION OF THE SINK & SOURCE TERM
 =  148.3    (WHEN MIN. R.F.=1)  AT K=   2, I=   1, J=   1

 MAXIMUM STEPSIZE WHICH MEETS STABILITY CRITERION OF THE DISPERSION TERM
 =  20.29    (WHEN MIN. R.F.=1)  AT K=   1, I=   1, J=  31
     1 CALLS TO GCG PACKAGE FOR TRANSPORT TIME STEP   2 IN FLOW TIME STEP 699 STRESS PERIOD   1
     6 TOTAL ITERATIONS
 
 SOLVING FOR HEAD 
 FLOW MODEL IS TRANSIENT
 FLOW MODEL CONTAINS CONSTANT-HEAD CELLS


 MAXIMUM STEPSIZE DURING WHICH ANY PARTICLE CANNOT MOVE MORE THAN ONE CELL
 =  5.184    (WHEN MIN. R.F.=1)  AT K=   5, I=   1, J=  47

 MAXIMUM STEPSIZE WHICH MEETS STABILITY CRITERION OF THE ADVECTION TERM
 (FOR PURE FINITE-DIFFERENCE OPTION, MIXELM=0) 
 =  3.959    (WHEN MIN. R.F.=1)  AT K=   2, I=   1, J=  41


 TOTAL NUMBER OF POINT SOURCES/SINKS PRESENT IN THE FLOW MODEL =    62

 MAXIMUM STEPSIZE WHICH MEETS STABILITY CRITERION OF THE SINK & SOURCE TERM
 =  146.8    (WHEN MIN. R.F.=1)  AT K=   2, I=   1, J=   1

 MAXIMUM STEPSIZE WHICH MEETS STABILITY CRITERION OF THE DISPERSION TERM
 =  20.29    (WHEN MIN. R.F.=1)  AT K=   1, I=   1, J=  31
     1 CALLS TO GCG PACKAGE FOR TRANSPORT TIME STEP   3 IN FLOW TIME STEP 699 STRESS PERIOD   1
     6 TOTAL ITERATIONS
 
 SOLVING FOR HEAD 
 FLOW MODEL IS TRANSIENT
 FLOW MODEL CONTAINS CONSTANT-HEAD CELLS


 MAXIMUM STEPSIZE DURING WHICH ANY PARTICLE CANNOT MOVE MORE THAN ONE CELL
 =  5.280    (WHEN MIN. R.F.=1)  AT K=   5, I=   1, J=  47

 MAXIMUM STEPSIZE WHICH MEETS STABILITY CRITERION OF THE ADVECTION TERM
 (FOR PURE FINITE-DIFFERENCE OPTION, MIXELM=0) 
 =  3.974    (WHEN MIN. R.F.=1)  AT K=   2, I=   1, J=  42


 TOTAL NUMBER OF POINT SOURCES/SINKS PRESENT IN THE FLOW MODEL =    62

 MAXIMUM STEPSIZE WHICH MEETS STABILITY CRITERION OF THE SINK & SOURCE TERM
 =  143.4    (WHEN MIN. R.F.=1)  AT K=   2, I=   1, J=   1

 MAXIMUM STEPSIZE WHICH MEETS STABILITY CRITERION OF THE DISPERSION TERM
 =  20.29    (WHEN MIN. R.F.=1)  AT K=   1, I=   1, J=  31
     1 CALLS TO GCG PACKAGE FOR TRANSPORT TIME STEP   4 IN FLOW TIME STEP 699 STRESS PERIOD   1
     5 TOTAL ITERATIONS
  MAXIMUM CONCENTRATION CHANGES FOR EACH ITERATION:
  MAX. CHANGE LAYER,ROW,COL MAX. CHANGE LAYER,ROW,COL MAX. CHANGE LAYER,ROW,COL MAX. CHANGE LAYER,ROW,COL MAX. CHANGE LAYER,ROW,COL
 ------------------------------------------------------------------------------------------------------------------------------------
   0.1742E-01 (  2,  1, 83)  0.3557E-03 (  3,  1, 78)  0.8870E-05 (  2,  1, 77)  0.4116E-06 (  3,  1, 45)  0.9920E-08 (  4,  1, 45)


                                          ================================================
                                                         FROM TIME =   6990.0     TO    7000.0    

 
 SOLVING FOR HEAD 
 FLOW MODEL IS TRANSIENT
 FLOW MODEL CONTAINS CONSTANT-HEAD CELLS


 MAXIMUM STEPSIZE DURING WHICH ANY PARTICLE CANNOT MOVE MORE THAN ONE CELL
 =  5.345    (WHEN MIN. R.F.=1)  AT K=   5, I=   1, J=  47

 MAXIMUM STEPSIZE WHICH MEETS STABILITY CRITERION OF THE ADVECTION TERM
 (FOR PURE FINITE-DIFFERENCE OPTION, MIXELM=0) 
 =  3.859    (WHEN MIN. R.F.=1)  AT K=   2, I=   1, J=  42


 TOTAL NUMBER OF POINT SOURCES/SINKS PRESENT IN THE FLOW MODEL =    62

 MAXIMUM STEPSIZE WHICH MEETS STABILITY CRITERION OF THE SINK & SOURCE TERM
 =  144.6    (WHEN MIN. R.F.=1)  AT K=   2, I=   1, J=   1

 MAXIMUM STEPSIZE WHICH MEETS STABILITY CRITERION OF THE DISPERSION TERM
 =  20.29    (WHEN MIN. R.F.=1)  AT K=   1, I=   1, J=  31


     1 CALLS TO GCG PACKAGE FOR TRANSPORT TIME STEP   1 IN FLOW TIME STEP 700 STRESS PERIOD   1
     6 TOTAL ITERATIONS

 NO OUTPUT CONTROL FOR STRESS PERIOD    1   TIME STEP 700
 
 SOLVING FOR HEAD 
 FLOW MODEL IS TRANSIENT
 FLOW MODEL CONTAINS CONSTANT-HEAD CELLS


 MAXIMUM STEPSIZE DURING WHICH ANY PARTICLE CANNOT MOVE MORE THAN ONE CELL
 =  5.479    (WHEN MIN. R.F.=1)  AT K=   4, I=   1, J=  74

 MAXIMUM STEPSIZE WHICH MEETS STABILITY CRITERION OF THE ADVECTION TERM
 (FOR PURE FINITE-DIFFERENCE OPTION, MIXELM=0) 
 =  3.736    (WHEN MIN. R.F.=1)  AT K=   2, I=   1, J=  42


 TOTAL NUMBER OF POINT SOURCES/SINKS PRESENT IN THE FLOW MODEL =    62

 MAXIMUM STEPSIZE WHICH MEETS STABILITY CRITERION OF THE SINK & SOURCE TERM
 =  138.8    (WHEN MIN. R.F.=1)  AT K=   2, I=   1, J=   1

 MAXIMUM STEPSIZE WHICH MEETS STABILITY CRITERION OF THE DISPERSION TERM
 =  20.29    (WHEN MIN. R.F.=1)  AT K=   1, I=   1, J=  31
     1 CALLS TO GCG PACKAGE FOR TRANSPORT TIME STEP   2 IN FLOW TIME STEP 700 STRESS PERIOD   1
     6 TOTAL ITERATIONS
 
 SOLVING FOR HEAD 
 FLOW MODEL IS TRANSIENT
 FLOW MODEL CONTAINS CONSTANT-HEAD CELLS


 MAXIMUM STEPSIZE DURING WHICH ANY PARTICLE CANNOT MOVE MORE THAN ONE CELL
 =  5.283    (WHEN MIN. R.F.=1)  AT K=   4, I=   1, J=  74

 MAXIMUM STEPSIZE WHICH MEETS STABILITY CRITERION OF THE ADVECTION TERM
 (FOR PURE FINITE-DIFFERENCE OPTION, MIXELM=0) 
 =  3.760    (WHEN MIN. R.F.=1)  AT K=   2, I=   1, J=  42


 TOTAL NUMBER OF POINT SOURCES/SINKS PRESENT IN THE FLOW MODEL =    62

 MAXIMUM STEPSIZE WHICH MEETS STABILITY CRITERION OF THE SINK & SOURCE TERM
 =  140.5    (WHEN MIN. R.F.=1)  AT K=   2, I=   1, J=   1

 MAXIMUM STEPSIZE WHICH MEETS STABILITY CRITERION OF THE DISPERSION TERM
 =  20.29    (WHEN MIN. R.F.=1)  AT K=   1, I=   1, J=  31
     1 CALLS TO GCG PACKAGE FOR TRANSPORT TIME STEP   3 IN FLOW TIME STEP 700 STRESS PERIOD   1
     6 TOTAL ITERATIONS
 
 SOLVING FOR HEAD 
 FLOW MODEL IS TRANSIENT
 FLOW MODEL CONTAINS CONSTANT-HEAD CELLS


 MAXIMUM STEPSIZE DURING WHICH ANY PARTICLE CANNOT MOVE MORE THAN ONE CELL
 =  5.143    (WHEN MIN. R.F.=1)  AT K=   4, I=   1, J=  74

 MAXIMUM STEPSIZE WHICH MEETS STABILITY CRITERION OF THE ADVECTION TERM
 (FOR PURE FINITE-DIFFERENCE OPTION, MIXELM=0) 
 =  3.911    (WHEN MIN. R.F.=1)  AT K=   2, I=   1, J=  42


 TOTAL NUMBER OF POINT SOURCES/SINKS PRESENT IN THE FLOW MODEL =    62

 MAXIMUM STEPSIZE WHICH MEETS STABILITY CRITERION OF THE SINK & SOURCE TERM
 =  141.0    (WHEN MIN. R.F.=1)  AT K=   2, I=   1, J=   1

 MAXIMUM STEPSIZE WHICH MEETS STABILITY CRITERION OF THE DISPERSION TERM
 =  20.29    (WHEN MIN. R.F.=1)  AT K=   1, I=   1, J=  31
     1 CALLS TO GCG PACKAGE FOR TRANSPORT TIME STEP   4 IN FLOW TIME STEP 700 STRESS PERIOD   1
     5 TOTAL ITERATIONS
  MAXIMUM CONCENTRATION CHANGES FOR EACH ITERATION:
  MAX. CHANGE LAYER,ROW,COL MAX. CHANGE LAYER,ROW,COL MAX. CHANGE LAYER,ROW,COL MAX. CHANGE LAYER,ROW,COL MAX. CHANGE LAYER,ROW,COL
 ------------------------------------------------------------------------------------------------------------------------------------
   0.1703E-01 (  2,  1, 82)  0.3450E-03 (  2,  1, 82)  0.9566E-05 (  2,  1, 83)  0.3351E-06 (  3,  1, 45)  0.6286E-08 (  4,  1, 45)


                                          ================================================
                                                         FROM TIME =   7000.0     TO    7010.0    

 
 SOLVING FOR HEAD 
 FLOW MODEL IS TRANSIENT
 FLOW MODEL CONTAINS CONSTANT-HEAD CELLS


 MAXIMUM STEPSIZE DURING WHICH ANY PARTICLE CANNOT MOVE MORE THAN ONE CELL
 =  5.092    (WHEN MIN. R.F.=1)  AT K=   4, I=   1, J=  74

 MAXIMUM STEPSIZE WHICH MEETS STABILITY CRITERION OF THE ADVECTION TERM
 (FOR PURE FINITE-DIFFERENCE OPTION, MIXELM=0) 
 =  4.044    (WHEN MIN. R.F.=1)  AT K=   2, I=   1, J=  81


 TOTAL NUMBER OF POINT SOURCES/SINKS PRESENT IN THE FLOW MODEL =    62

 MAXIMUM STEPSIZE WHICH MEETS STABILITY CRITERION OF THE SINK & SOURCE TERM
 =  143.7    (WHEN MIN. R.F.=1)  AT K=   2, I=   1, J=   1

 MAXIMUM STEPSIZE WHICH MEETS STABILITY CRITERION OF THE DISPERSION TERM
 =  20.29    (WHEN MIN. R.F.=1)  AT K=   1, I=   1, J=  31


     1 CALLS TO GCG PACKAGE FOR TRANSPORT TIME STEP   1 IN FLOW TIME STEP 701 STRESS PERIOD   1
     6 TOTAL ITERATIONS

 NO OUTPUT CONTROL FOR STRESS PERIOD    1   TIME STEP 701
 
 SOLVING FOR HEAD 
 FLOW MODEL IS TRANSIENT
 FLOW MODEL CONTAINS CONSTANT-HEAD CELLS


 MAXIMUM STEPSIZE DURING WHICH ANY PARTICLE CANNOT MOVE MORE THAN ONE CELL
 =  5.013    (WHEN MIN. R.F.=1)  AT K=   4, I=   1, J=  74

 MAXIMUM STEPSIZE WHICH MEETS STABILITY CRITERION OF THE ADVECTION TERM
 (FOR PURE FINITE-DIFFERENCE OPTION, MIXELM=0) 
 =  3.976    (WHEN MIN. R.F.=1)  AT K=   2, I=   1, J=  80


 TOTAL NUMBER OF POINT SOURCES/SINKS PRESENT IN THE FLOW MODEL =    62

 MAXIMUM STEPSIZE WHICH MEETS STABILITY CRITERION OF THE SINK & SOURCE TERM
 =  136.8    (WHEN MIN. R.F.=1)  AT K=   2, I=   1, J=   1

 MAXIMUM STEPSIZE WHICH MEETS STABILITY CRITERION OF THE DISPERSION TERM
 =  20.29    (WHEN MIN. R.F.=1)  AT K=   1, I=   1, J=  31
     1 CALLS TO GCG PACKAGE FOR TRANSPORT TIME STEP   2 IN FLOW TIME STEP 701 STRESS PERIOD   1
     6 TOTAL ITERATIONS
 
 SOLVING FOR HEAD 
 FLOW MODEL IS TRANSIENT
 FLOW MODEL CONTAINS CONSTANT-HEAD CELLS


 MAXIMUM STEPSIZE DURING WHICH ANY PARTICLE CANNOT MOVE MORE THAN ONE CELL
 =  4.978    (WHEN MIN. R.F.=1)  AT K=   4, I=   1, J=  74

 MAXIMUM STEPSIZE WHICH MEETS STABILITY CRITERION OF THE ADVECTION TERM
 (FOR PURE FINITE-DIFFERENCE OPTION, MIXELM=0) 
 =  3.697    (WHEN MIN. R.F.=1)  AT K=   2, I=   1, J=  80


 TOTAL NUMBER OF POINT SOURCES/SINKS PRESENT IN THE FLOW MODEL =    62

 MAXIMUM STEPSIZE WHICH MEETS STABILITY CRITERION OF THE SINK & SOURCE TERM
 =  134.8    (WHEN MIN. R.F.=1)  AT K=   2, I=   1, J=   1

 MAXIMUM STEPSIZE WHICH MEETS STABILITY CRITERION OF THE DISPERSION TERM
 =  20.29    (WHEN MIN. R.F.=1)  AT K=   1, I=   1, J=  31
     1 CALLS TO GCG PACKAGE FOR TRANSPORT TIME STEP   3 IN FLOW TIME STEP 701 STRESS PERIOD   1
     6 TOTAL ITERATIONS
 
 SOLVING FOR HEAD 
 FLOW MODEL IS TRANSIENT
 FLOW MODEL CONTAINS CONSTANT-HEAD CELLS


 MAXIMUM STEPSIZE DURING WHICH ANY PARTICLE CANNOT MOVE MORE THAN ONE CELL
 =  4.986    (WHEN MIN. R.F.=1)  AT K=   4, I=   1, J=  74

 MAXIMUM STEPSIZE WHICH MEETS STABILITY CRITERION OF THE ADVECTION TERM
 (FOR PURE FINITE-DIFFERENCE OPTION, MIXELM=0) 
 =  3.626    (WHEN MIN. R.F.=1)  AT K=   2, I=   1, J=  80


 TOTAL NUMBER OF POINT SOURCES/SINKS PRESENT IN THE FLOW MODEL =    62

 MAXIMUM STEPSIZE WHICH MEETS STABILITY CRITERION OF THE SINK & SOURCE TERM
 =  134.3    (WHEN MIN. R.F.=1)  AT K=   2, I=   1, J=   1

 MAXIMUM STEPSIZE WHICH MEETS STABILITY CRITERION OF THE DISPERSION TERM
 =  20.29    (WHEN MIN. R.F.=1)  AT K=   1, I=   1, J=  31
     1 CALLS TO GCG PACKAGE FOR TRANSPORT TIME STEP   4 IN FLOW TIME STEP 701 STRESS PERIOD   1
     5 TOTAL ITERATIONS
  MAXIMUM CONCENTRATION CHANGES FOR EACH ITERATION:
  MAX. CHANGE LAYER,ROW,COL MAX. CHANGE LAYER,ROW,COL MAX. CHANGE LAYER,ROW,COL MAX. CHANGE LAYER,ROW,COL MAX. CHANGE LAYER,ROW,COL
 ------------------------------------------------------------------------------------------------------------------------------------
   0.1228E-01 (  2,  1, 81)  0.2020E-03 (  2,  1, 81)  0.5434E-05 (  3,  1, 79)  0.1341E-06 (  3,  1, 77)  0.2786E-08 (  4,  1, 77)


                                          ================================================
                                                         FROM TIME =   7010.0     TO    7020.0    

 
 SOLVING FOR HEAD 
 FLOW MODEL IS TRANSIENT
 FLOW MODEL CONTAINS CONSTANT-HEAD CELLS


 MAXIMUM STEPSIZE DURING WHICH ANY PARTICLE CANNOT MOVE MORE THAN ONE CELL
 =  5.003    (WHEN MIN. R.F.=1)  AT K=   4, I=   1, J=  74

 MAXIMUM STEPSIZE WHICH MEETS STABILITY CRITERION OF THE ADVECTION TERM
 (FOR PURE FINITE-DIFFERENCE OPTION, MIXELM=0) 
 =  3.653    (WHEN MIN. R.F.=1)  AT K=   2, I=   1, J=  80


 TOTAL NUMBER OF POINT SOURCES/SINKS PRESENT IN THE FLOW MODEL =    62

 MAXIMUM STEPSIZE WHICH MEETS STABILITY CRITERION OF THE SINK & SOURCE TERM
 =  143.4    (WHEN MIN. R.F.=1)  AT K=   2, I=   1, J=   1

 MAXIMUM STEPSIZE WHICH MEETS STABILITY CRITERION OF THE DISPERSION TERM
 =  20.29    (WHEN MIN. R.F.=1)  AT K=   1, I=   1, J=  31


     1 CALLS TO GCG PACKAGE FOR TRANSPORT TIME STEP   1 IN FLOW TIME STEP 702 STRESS PERIOD   1
     6 TOTAL ITERATIONS

 NO OUTPUT CONTROL FOR STRESS PERIOD    1   TIME STEP 702
 
 SOLVING FOR HEAD 
 FLOW MODEL IS TRANSIENT
 FLOW MODEL CONTAINS CONSTANT-HEAD CELLS


 MAXIMUM STEPSIZE DURING WHICH ANY PARTICLE CANNOT MOVE MORE THAN ONE CELL
 =  5.063    (WHEN MIN. R.F.=1)  AT K=   5, I=   1, J=  74

 MAXIMUM STEPSIZE WHICH MEETS STABILITY CRITERION OF THE ADVECTION TERM
 (FOR PURE FINITE-DIFFERENCE OPTION, MIXELM=0) 
 =  3.854    (WHEN MIN. R.F.=1)  AT K=   2, I=   1, J=  80


 TOTAL NUMBER OF POINT SOURCES/SINKS PRESENT IN THE FLOW MODEL =    62

 MAXIMUM STEPSIZE WHICH MEETS STABILITY CRITERION OF THE SINK & SOURCE TERM
 =  140.2    (WHEN MIN. R.F.=1)  AT K=   2, I=   1, J=   1

 MAXIMUM STEPSIZE WHICH MEETS STABILITY CRITERION OF THE DISPERSION TERM
 =  20.29    (WHEN MIN. R.F.=1)  AT K=   1, I=   1, J=  31
     1 CALLS TO GCG PACKAGE FOR TRANSPORT TIME STEP   2 IN FLOW TIME STEP 702 STRESS PERIOD   1
     6 TOTAL ITERATIONS
 
 SOLVING FOR HEAD 
 FLOW MODEL IS TRANSIENT
 FLOW MODEL CONTAINS CONSTANT-HEAD CELLS


 MAXIMUM STEPSIZE DURING WHICH ANY PARTICLE CANNOT MOVE MORE THAN ONE CELL
 =  5.106    (WHEN MIN. R.F.=1)  AT K=   5, I=   1, J=  74

 MAXIMUM STEPSIZE WHICH MEETS STABILITY CRITERION OF THE ADVECTION TERM
 (FOR PURE FINITE-DIFFERENCE OPTION, MIXELM=0) 
 =  3.838    (WHEN MIN. R.F.=1)  AT K=   2, I=   1, J=  79


 TOTAL NUMBER OF POINT SOURCES/SINKS PRESENT IN THE FLOW MODEL =    62

 MAXIMUM STEPSIZE WHICH MEETS STABILITY CRITERION OF THE SINK & SOURCE TERM
 =  139.4    (WHEN MIN. R.F.=1)  AT K=   2, I=   1, J=   1

 MAXIMUM STEPSIZE WHICH MEETS STABILITY CRITERION OF THE DISPERSION TERM
 =  20.29    (WHEN MIN. R.F.=1)  AT K=   1, I=   1, J=  31
     1 CALLS TO GCG PACKAGE FOR TRANSPORT TIME STEP   3 IN FLOW TIME STEP 702 STRESS PERIOD   1
     6 TOTAL ITERATIONS
 
 SOLVING FOR HEAD 
 FLOW MODEL IS TRANSIENT
 FLOW MODEL CONTAINS CONSTANT-HEAD CELLS


 MAXIMUM STEPSIZE DURING WHICH ANY PARTICLE CANNOT MOVE MORE THAN ONE CELL
 =  5.184    (WHEN MIN. R.F.=1)  AT K=   5, I=   1, J=  74

 MAXIMUM STEPSIZE WHICH MEETS STABILITY CRITERION OF THE ADVECTION TERM
 (FOR PURE FINITE-DIFFERENCE OPTION, MIXELM=0) 
 =  3.629    (WHEN MIN. R.F.=1)  AT K=   2, I=   1, J=  79


 TOTAL NUMBER OF POINT SOURCES/SINKS PRESENT IN THE FLOW MODEL =    62

 MAXIMUM STEPSIZE WHICH MEETS STABILITY CRITERION OF THE SINK & SOURCE TERM
 =  137.2    (WHEN MIN. R.F.=1)  AT K=   2, I=   1, J=   1

 MAXIMUM STEPSIZE WHICH MEETS STABILITY CRITERION OF THE DISPERSION TERM
 =  20.29    (WHEN MIN. R.F.=1)  AT K=   1, I=   1, J=  31
     1 CALLS TO GCG PACKAGE FOR TRANSPORT TIME STEP   4 IN FLOW TIME STEP 702 STRESS PERIOD   1
     5 TOTAL ITERATIONS
  MAXIMUM CONCENTRATION CHANGES FOR EACH ITERATION:
  MAX. CHANGE LAYER,ROW,COL MAX. CHANGE LAYER,ROW,COL MAX. CHANGE LAYER,ROW,COL MAX. CHANGE LAYER,ROW,COL MAX. CHANGE LAYER,ROW,COL
 ------------------------------------------------------------------------------------------------------------------------------------
   0.1742E-01 (  2,  1, 42)  0.4744E-03 (  2,  1, 79)  0.1620E-04 (  2,  1, 76)  0.9245E-06 (  3,  1, 76)  0.2654E-07 (  4,  1, 76)


                                          ================================================
                                                         FROM TIME =   7020.0     TO    7030.0    

 
 SOLVING FOR HEAD 
 FLOW MODEL IS TRANSIENT
 FLOW MODEL CONTAINS CONSTANT-HEAD CELLS


 MAXIMUM STEPSIZE DURING WHICH ANY PARTICLE CANNOT MOVE MORE THAN ONE CELL
 =  5.245    (WHEN MIN. R.F.=1)  AT K=   5, I=   1, J=  74

 MAXIMUM STEPSIZE WHICH MEETS STABILITY CRITERION OF THE ADVECTION TERM
 (FOR PURE FINITE-DIFFERENCE OPTION, MIXELM=0) 
 =  3.592    (WHEN MIN. R.F.=1)  AT K=   2, I=   1, J=  79


 TOTAL NUMBER OF POINT SOURCES/SINKS PRESENT IN THE FLOW MODEL =    62

 MAXIMUM STEPSIZE WHICH MEETS STABILITY CRITERION OF THE SINK & SOURCE TERM
 =  139.7    (WHEN MIN. R.F.=1)  AT K=   2, I=   1, J=   1

 MAXIMUM STEPSIZE WHICH MEETS STABILITY CRITERION OF THE DISPERSION TERM
 =  20.29    (WHEN MIN. R.F.=1)  AT K=   1, I=   1, J=  31


     1 CALLS TO GCG PACKAGE FOR TRANSPORT TIME STEP   1 IN FLOW TIME STEP 703 STRESS PERIOD   1
     6 TOTAL ITERATIONS

 NO OUTPUT CONTROL FOR STRESS PERIOD    1   TIME STEP 703
 
 SOLVING FOR HEAD 
 FLOW MODEL IS TRANSIENT
 FLOW MODEL CONTAINS CONSTANT-HEAD CELLS


 MAXIMUM STEPSIZE DURING WHICH ANY PARTICLE CANNOT MOVE MORE THAN ONE CELL
 =  5.368    (WHEN MIN. R.F.=1)  AT K=   5, I=   1, J=  74

 MAXIMUM STEPSIZE WHICH MEETS STABILITY CRITERION OF THE ADVECTION TERM
 (FOR PURE FINITE-DIFFERENCE OPTION, MIXELM=0) 
 =  3.610    (WHEN MIN. R.F.=1)  AT K=   2, I=   1, J=  79


 TOTAL NUMBER OF POINT SOURCES/SINKS PRESENT IN THE FLOW MODEL =    62

 MAXIMUM STEPSIZE WHICH MEETS STABILITY CRITERION OF THE SINK & SOURCE TERM
 =  139.1    (WHEN MIN. R.F.=1)  AT K=   2, I=   1, J=   1

 MAXIMUM STEPSIZE WHICH MEETS STABILITY CRITERION OF THE DISPERSION TERM
 =  20.29    (WHEN MIN. R.F.=1)  AT K=   1, I=   1, J=  31
     1 CALLS TO GCG PACKAGE FOR TRANSPORT TIME STEP   2 IN FLOW TIME STEP 703 STRESS PERIOD   1
     6 TOTAL ITERATIONS
 
 SOLVING FOR HEAD 
 FLOW MODEL IS TRANSIENT
 FLOW MODEL CONTAINS CONSTANT-HEAD CELLS


 MAXIMUM STEPSIZE DURING WHICH ANY PARTICLE CANNOT MOVE MORE THAN ONE CELL
 =  5.470    (WHEN MIN. R.F.=1)  AT K=   6, I=   1, J=  74

 MAXIMUM STEPSIZE WHICH MEETS STABILITY CRITERION OF THE ADVECTION TERM
 (FOR PURE FINITE-DIFFERENCE OPTION, MIXELM=0) 
 =  3.761    (WHEN MIN. R.F.=1)  AT K=   2, I=   1, J=  79


 TOTAL NUMBER OF POINT SOURCES/SINKS PRESENT IN THE FLOW MODEL =    62

 MAXIMUM STEPSIZE WHICH MEETS STABILITY CRITERION OF THE SINK & SOURCE TERM
 =  141.0    (WHEN MIN. R.F.=1)  AT K=   2, I=   1, J=   1

 MAXIMUM STEPSIZE WHICH MEETS STABILITY CRITERION OF THE DISPERSION TERM
 =  20.29    (WHEN MIN. R.F.=1)  AT K=   1, I=   1, J=  31
     1 CALLS TO GCG PACKAGE FOR TRANSPORT TIME STEP   3 IN FLOW TIME STEP 703 STRESS PERIOD   1
     6 TOTAL ITERATIONS
 
 SOLVING FOR HEAD 
 FLOW MODEL IS TRANSIENT
 FLOW MODEL CONTAINS CONSTANT-HEAD CELLS


 MAXIMUM STEPSIZE DURING WHICH ANY PARTICLE CANNOT MOVE MORE THAN ONE CELL
 =  5.586    (WHEN MIN. R.F.=1)  AT K=   6, I=   1, J=  74

 MAXIMUM STEPSIZE WHICH MEETS STABILITY CRITERION OF THE ADVECTION TERM
 (FOR PURE FINITE-DIFFERENCE OPTION, MIXELM=0) 
 =  4.100    (WHEN MIN. R.F.=1)  AT K=   2, I=   1, J=  78


 TOTAL NUMBER OF POINT SOURCES/SINKS PRESENT IN THE FLOW MODEL =    62

 MAXIMUM STEPSIZE WHICH MEETS STABILITY CRITERION OF THE SINK & SOURCE TERM
 =  141.2    (WHEN MIN. R.F.=1)  AT K=   2, I=   1, J=   1

 MAXIMUM STEPSIZE WHICH MEETS STABILITY CRITERION OF THE DISPERSION TERM
 =  20.29    (WHEN MIN. R.F.=1)  AT K=   1, I=   1, J=  31
     1 CALLS TO GCG PACKAGE FOR TRANSPORT TIME STEP   4 IN FLOW TIME STEP 703 STRESS PERIOD   1
     5 TOTAL ITERATIONS
  MAXIMUM CONCENTRATION CHANGES FOR EACH ITERATION:
  MAX. CHANGE LAYER,ROW,COL MAX. CHANGE LAYER,ROW,COL MAX. CHANGE LAYER,ROW,COL MAX. CHANGE LAYER,ROW,COL MAX. CHANGE LAYER,ROW,COL
 ------------------------------------------------------------------------------------------------------------------------------------
   0.2228E-01 (  2,  1, 80)  0.7005E-03 (  2,  1, 78)  0.2581E-04 (  3,  1, 78)  0.1041E-05 (  3,  1, 76)  0.3424E-07 (  4,  1, 79)


                                          ================================================
                                                         FROM TIME =   7030.0     TO    7040.0    

 
 SOLVING FOR HEAD 
 FLOW MODEL IS TRANSIENT
 FLOW MODEL CONTAINS CONSTANT-HEAD CELLS


 MAXIMUM STEPSIZE DURING WHICH ANY PARTICLE CANNOT MOVE MORE THAN ONE CELL
 =  5.686    (WHEN MIN. R.F.=1)  AT K=   6, I=   1, J=  74

 MAXIMUM STEPSIZE WHICH MEETS STABILITY CRITERION OF THE ADVECTION TERM
 (FOR PURE FINITE-DIFFERENCE OPTION, MIXELM=0) 
 =  3.897    (WHEN MIN. R.F.=1)  AT K=   2, I=   1, J=  78


 TOTAL NUMBER OF POINT SOURCES/SINKS PRESENT IN THE FLOW MODEL =    62

 MAXIMUM STEPSIZE WHICH MEETS STABILITY CRITERION OF THE SINK & SOURCE TERM
 =  141.9    (WHEN MIN. R.F.=1)  AT K=   2, I=   1, J=   1

 MAXIMUM STEPSIZE WHICH MEETS STABILITY CRITERION OF THE DISPERSION TERM
 =  20.29    (WHEN MIN. R.F.=1)  AT K=   1, I=   1, J=  31


     1 CALLS TO GCG PACKAGE FOR TRANSPORT TIME STEP   1 IN FLOW TIME STEP 704 STRESS PERIOD   1
     6 TOTAL ITERATIONS

 NO OUTPUT CONTROL FOR STRESS PERIOD    1   TIME STEP 704
 
 SOLVING FOR HEAD 
 FLOW MODEL IS TRANSIENT
 FLOW MODEL CONTAINS CONSTANT-HEAD CELLS


 MAXIMUM STEPSIZE DURING WHICH ANY PARTICLE CANNOT MOVE MORE THAN ONE CELL
 =  5.765    (WHEN MIN. R.F.=1)  AT K=  28, I=   1, J=  52

 MAXIMUM STEPSIZE WHICH MEETS STABILITY CRITERION OF THE ADVECTION TERM
 (FOR PURE FINITE-DIFFERENCE OPTION, MIXELM=0) 
 =  3.702    (WHEN MIN. R.F.=1)  AT K=   2, I=   1, J=  78


 TOTAL NUMBER OF POINT SOURCES/SINKS PRESENT IN THE FLOW MODEL =    62

 MAXIMUM STEPSIZE WHICH MEETS STABILITY CRITERION OF THE SINK & SOURCE TERM
 =  137.8    (WHEN MIN. R.F.=1)  AT K=   2, I=   1, J=   1

 MAXIMUM STEPSIZE WHICH MEETS STABILITY CRITERION OF THE DISPERSION TERM
 =  20.29    (WHEN MIN. R.F.=1)  AT K=   1, I=   1, J=  31
     1 CALLS TO GCG PACKAGE FOR TRANSPORT TIME STEP   2 IN FLOW TIME STEP 704 STRESS PERIOD   1
     6 TOTAL ITERATIONS
 
 SOLVING FOR HEAD 
 FLOW MODEL IS TRANSIENT
 FLOW MODEL CONTAINS CONSTANT-HEAD CELLS


 MAXIMUM STEPSIZE DURING WHICH ANY PARTICLE CANNOT MOVE MORE THAN ONE CELL
 =  5.763    (WHEN MIN. R.F.=1)  AT K=  28, I=   1, J=  52

 MAXIMUM STEPSIZE WHICH MEETS STABILITY CRITERION OF THE ADVECTION TERM
 (FOR PURE FINITE-DIFFERENCE OPTION, MIXELM=0) 
 =  3.677    (WHEN MIN. R.F.=1)  AT K=   2, I=   1, J=  78


 TOTAL NUMBER OF POINT SOURCES/SINKS PRESENT IN THE FLOW MODEL =    62

 MAXIMUM STEPSIZE WHICH MEETS STABILITY CRITERION OF THE SINK & SOURCE TERM
 =  136.9    (WHEN MIN. R.F.=1)  AT K=   2, I=   1, J=   1

 MAXIMUM STEPSIZE WHICH MEETS STABILITY CRITERION OF THE DISPERSION TERM
 =  20.29    (WHEN MIN. R.F.=1)  AT K=   1, I=   1, J=  31
     1 CALLS TO GCG PACKAGE FOR TRANSPORT TIME STEP   3 IN FLOW TIME STEP 704 STRESS PERIOD   1
     6 TOTAL ITERATIONS
 
 SOLVING FOR HEAD 
 FLOW MODEL IS TRANSIENT
 FLOW MODEL CONTAINS CONSTANT-HEAD CELLS


 MAXIMUM STEPSIZE DURING WHICH ANY PARTICLE CANNOT MOVE MORE THAN ONE CELL
 =  5.763    (WHEN MIN. R.F.=1)  AT K=  28, I=   1, J=  52

 MAXIMUM STEPSIZE WHICH MEETS STABILITY CRITERION OF THE ADVECTION TERM
 (FOR PURE FINITE-DIFFERENCE OPTION, MIXELM=0) 
 =  3.767    (WHEN MIN. R.F.=1)  AT K=   2, I=   1, J=  78


 TOTAL NUMBER OF POINT SOURCES/SINKS PRESENT IN THE FLOW MODEL =    62

 MAXIMUM STEPSIZE WHICH MEETS STABILITY CRITERION OF THE SINK & SOURCE TERM
 =  137.7    (WHEN MIN. R.F.=1)  AT K=   2, I=   1, J=   1

 MAXIMUM STEPSIZE WHICH MEETS STABILITY CRITERION OF THE DISPERSION TERM
 =  20.29    (WHEN MIN. R.F.=1)  AT K=   1, I=   1, J=  31
     1 CALLS TO GCG PACKAGE FOR TRANSPORT TIME STEP   4 IN FLOW TIME STEP 704 STRESS PERIOD   1
     5 TOTAL ITERATIONS
  MAXIMUM CONCENTRATION CHANGES FOR EACH ITERATION:
  MAX. CHANGE LAYER,ROW,COL MAX. CHANGE LAYER,ROW,COL MAX. CHANGE LAYER,ROW,COL MAX. CHANGE LAYER,ROW,COL MAX. CHANGE LAYER,ROW,COL
 ------------------------------------------------------------------------------------------------------------------------------------
   0.1523E-01 (  2,  1, 79)  0.2702E-03 (  2,  1, 79)  0.7246E-05 (  2,  1, 80)  0.2189E-06 (  3,  1, 80)  0.5164E-08 (  4,  1, 79)


                                          ================================================
                                                         FROM TIME =   7040.0     TO    7050.0    

 
 SOLVING FOR HEAD 
 FLOW MODEL IS TRANSIENT
 FLOW MODEL CONTAINS CONSTANT-HEAD CELLS


 MAXIMUM STEPSIZE DURING WHICH ANY PARTICLE CANNOT MOVE MORE THAN ONE CELL
 =  5.768    (WHEN MIN. R.F.=1)  AT K=  28, I=   1, J=  52

 MAXIMUM STEPSIZE WHICH MEETS STABILITY CRITERION OF THE ADVECTION TERM
 (FOR PURE FINITE-DIFFERENCE OPTION, MIXELM=0) 
 =  3.862    (WHEN MIN. R.F.=1)  AT K=   2, I=   1, J=  78


 TOTAL NUMBER OF POINT SOURCES/SINKS PRESENT IN THE FLOW MODEL =    62

 MAXIMUM STEPSIZE WHICH MEETS STABILITY CRITERION OF THE SINK & SOURCE TERM
 =  144.1    (WHEN MIN. R.F.=1)  AT K=   2, I=   1, J=   1

 MAXIMUM STEPSIZE WHICH MEETS STABILITY CRITERION OF THE DISPERSION TERM
 =  20.29    (WHEN MIN. R.F.=1)  AT K=   1, I=   1, J=  31


     1 CALLS TO GCG PACKAGE FOR TRANSPORT TIME STEP   1 IN FLOW TIME STEP 705 STRESS PERIOD   1
     6 TOTAL ITERATIONS

 NO OUTPUT CONTROL FOR STRESS PERIOD    1   TIME STEP 705
 
 SOLVING FOR HEAD 
 FLOW MODEL IS TRANSIENT
 FLOW MODEL CONTAINS CONSTANT-HEAD CELLS


 MAXIMUM STEPSIZE DURING WHICH ANY PARTICLE CANNOT MOVE MORE THAN ONE CELL
 =  5.768    (WHEN MIN. R.F.=1)  AT K=  28, I=   1, J=  52

 MAXIMUM STEPSIZE WHICH MEETS STABILITY CRITERION OF THE ADVECTION TERM
 (FOR PURE FINITE-DIFFERENCE OPTION, MIXELM=0) 
 =  4.205    (WHEN MIN. R.F.=1)  AT K=   2, I=   1, J=  78


 TOTAL NUMBER OF POINT SOURCES/SINKS PRESENT IN THE FLOW MODEL =    62

 MAXIMUM STEPSIZE WHICH MEETS STABILITY CRITERION OF THE SINK & SOURCE TERM
 =  140.2    (WHEN MIN. R.F.=1)  AT K=   2, I=   1, J=   1

 MAXIMUM STEPSIZE WHICH MEETS STABILITY CRITERION OF THE DISPERSION TERM
 =  20.29    (WHEN MIN. R.F.=1)  AT K=   1, I=   1, J=  31
     1 CALLS TO GCG PACKAGE FOR TRANSPORT TIME STEP   2 IN FLOW TIME STEP 705 STRESS PERIOD   1
     6 TOTAL ITERATIONS
 
 SOLVING FOR HEAD 
 FLOW MODEL IS TRANSIENT
 FLOW MODEL CONTAINS CONSTANT-HEAD CELLS


 MAXIMUM STEPSIZE DURING WHICH ANY PARTICLE CANNOT MOVE MORE THAN ONE CELL
 =  5.768    (WHEN MIN. R.F.=1)  AT K=  28, I=   1, J=  52

 MAXIMUM STEPSIZE WHICH MEETS STABILITY CRITERION OF THE ADVECTION TERM
 (FOR PURE FINITE-DIFFERENCE OPTION, MIXELM=0) 
 =  4.085    (WHEN MIN. R.F.=1)  AT K=   2, I=   1, J=  77


 TOTAL NUMBER OF POINT SOURCES/SINKS PRESENT IN THE FLOW MODEL =    62

 MAXIMUM STEPSIZE WHICH MEETS STABILITY CRITERION OF THE SINK & SOURCE TERM
 =  138.9    (WHEN MIN. R.F.=1)  AT K=   2, I=   1, J=   1

 MAXIMUM STEPSIZE WHICH MEETS STABILITY CRITERION OF THE DISPERSION TERM
 =  20.29    (WHEN MIN. R.F.=1)  AT K=   1, I=   1, J=  31
     1 CALLS TO GCG PACKAGE FOR TRANSPORT TIME STEP   3 IN FLOW TIME STEP 705 STRESS PERIOD   1
     6 TOTAL ITERATIONS
 
 SOLVING FOR HEAD 
 FLOW MODEL IS TRANSIENT
 FLOW MODEL CONTAINS CONSTANT-HEAD CELLS


 MAXIMUM STEPSIZE DURING WHICH ANY PARTICLE CANNOT MOVE MORE THAN ONE CELL
 =  5.765    (WHEN MIN. R.F.=1)  AT K=  28, I=   1, J=  52

 MAXIMUM STEPSIZE WHICH MEETS STABILITY CRITERION OF THE ADVECTION TERM
 (FOR PURE FINITE-DIFFERENCE OPTION, MIXELM=0) 
 =  3.890    (WHEN MIN. R.F.=1)  AT K=   2, I=   1, J=  77


 TOTAL NUMBER OF POINT SOURCES/SINKS PRESENT IN THE FLOW MODEL =    62

 MAXIMUM STEPSIZE WHICH MEETS STABILITY CRITERION OF THE SINK & SOURCE TERM
 =  135.9    (WHEN MIN. R.F.=1)  AT K=   2, I=   1, J=   1

 MAXIMUM STEPSIZE WHICH MEETS STABILITY CRITERION OF THE DISPERSION TERM
 =  20.29    (WHEN MIN. R.F.=1)  AT K=   1, I=   1, J=  31
     1 CALLS TO GCG PACKAGE FOR TRANSPORT TIME STEP   4 IN FLOW TIME STEP 705 STRESS PERIOD   1
     5 TOTAL ITERATIONS
  MAXIMUM CONCENTRATION CHANGES FOR EACH ITERATION:
  MAX. CHANGE LAYER,ROW,COL MAX. CHANGE LAYER,ROW,COL MAX. CHANGE LAYER,ROW,COL MAX. CHANGE LAYER,ROW,COL MAX. CHANGE LAYER,ROW,COL
 ------------------------------------------------------------------------------------------------------------------------------------
   0.1218E-01 (  2,  1, 37)  0.2615E-03 (  2,  1, 77)  0.5136E-05 (  3,  1, 77)  0.1361E-06 (  3,  1, 43)  0.3249E-08 (  4,  1, 78)


                                          ================================================
                                                         FROM TIME =   7050.0     TO    7060.0    

 
 SOLVING FOR HEAD 
 FLOW MODEL IS TRANSIENT
 FLOW MODEL CONTAINS CONSTANT-HEAD CELLS


 MAXIMUM STEPSIZE DURING WHICH ANY PARTICLE CANNOT MOVE MORE THAN ONE CELL
 =  5.770    (WHEN MIN. R.F.=1)  AT K=  28, I=   1, J=  52

 MAXIMUM STEPSIZE WHICH MEETS STABILITY CRITERION OF THE ADVECTION TERM
 (FOR PURE FINITE-DIFFERENCE OPTION, MIXELM=0) 
 =  3.869    (WHEN MIN. R.F.=1)  AT K=   2, I=   1, J=  77


 TOTAL NUMBER OF POINT SOURCES/SINKS PRESENT IN THE FLOW MODEL =    62

 MAXIMUM STEPSIZE WHICH MEETS STABILITY CRITERION OF THE SINK & SOURCE TERM
 =  140.9    (WHEN MIN. R.F.=1)  AT K=   2, I=   1, J=   1

 MAXIMUM STEPSIZE WHICH MEETS STABILITY CRITERION OF THE DISPERSION TERM
 =  20.29    (WHEN MIN. R.F.=1)  AT K=   1, I=   1, J=  31


     1 CALLS TO GCG PACKAGE FOR TRANSPORT TIME STEP   1 IN FLOW TIME STEP 706 STRESS PERIOD   1
     6 TOTAL ITERATIONS

 NO OUTPUT CONTROL FOR STRESS PERIOD    1   TIME STEP 706
 
 SOLVING FOR HEAD 
 FLOW MODEL IS TRANSIENT
 FLOW MODEL CONTAINS CONSTANT-HEAD CELLS


 MAXIMUM STEPSIZE DURING WHICH ANY PARTICLE CANNOT MOVE MORE THAN ONE CELL
 =  5.770    (WHEN MIN. R.F.=1)  AT K=  28, I=   1, J=  52

 MAXIMUM STEPSIZE WHICH MEETS STABILITY CRITERION OF THE ADVECTION TERM
 (FOR PURE FINITE-DIFFERENCE OPTION, MIXELM=0) 
 =  3.881    (WHEN MIN. R.F.=1)  AT K=   2, I=   1, J=  77


 TOTAL NUMBER OF POINT SOURCES/SINKS PRESENT IN THE FLOW MODEL =    62

 MAXIMUM STEPSIZE WHICH MEETS STABILITY CRITERION OF THE SINK & SOURCE TERM
 =  136.8    (WHEN MIN. R.F.=1)  AT K=   2, I=   1, J=   1

 MAXIMUM STEPSIZE WHICH MEETS STABILITY CRITERION OF THE DISPERSION TERM
 =  20.29    (WHEN MIN. R.F.=1)  AT K=   1, I=   1, J=  31
     1 CALLS TO GCG PACKAGE FOR TRANSPORT TIME STEP   2 IN FLOW TIME STEP 706 STRESS PERIOD   1
     6 TOTAL ITERATIONS
 
 SOLVING FOR HEAD 
 FLOW MODEL IS TRANSIENT
 FLOW MODEL CONTAINS CONSTANT-HEAD CELLS


 MAXIMUM STEPSIZE DURING WHICH ANY PARTICLE CANNOT MOVE MORE THAN ONE CELL
 =  5.770    (WHEN MIN. R.F.=1)  AT K=  28, I=   1, J=  52

 MAXIMUM STEPSIZE WHICH MEETS STABILITY CRITERION OF THE ADVECTION TERM
 (FOR PURE FINITE-DIFFERENCE OPTION, MIXELM=0) 
 =  3.998    (WHEN MIN. R.F.=1)  AT K=   2, I=   1, J=  77


 TOTAL NUMBER OF POINT SOURCES/SINKS PRESENT IN THE FLOW MODEL =    62

 MAXIMUM STEPSIZE WHICH MEETS STABILITY CRITERION OF THE SINK & SOURCE TERM
 =  137.4    (WHEN MIN. R.F.=1)  AT K=   2, I=   1, J=   1

 MAXIMUM STEPSIZE WHICH MEETS STABILITY CRITERION OF THE DISPERSION TERM
 =  20.29    (WHEN MIN. R.F.=1)  AT K=   1, I=   1, J=  31
     1 CALLS TO GCG PACKAGE FOR TRANSPORT TIME STEP   3 IN FLOW TIME STEP 706 STRESS PERIOD   1
     6 TOTAL ITERATIONS
 
 SOLVING FOR HEAD 
 FLOW MODEL IS TRANSIENT
 FLOW MODEL CONTAINS CONSTANT-HEAD CELLS


 MAXIMUM STEPSIZE DURING WHICH ANY PARTICLE CANNOT MOVE MORE THAN ONE CELL
 =  5.770    (WHEN MIN. R.F.=1)  AT K=  28, I=   1, J=  52

 MAXIMUM STEPSIZE WHICH MEETS STABILITY CRITERION OF THE ADVECTION TERM
 (FOR PURE FINITE-DIFFERENCE OPTION, MIXELM=0) 
 =  4.288    (WHEN MIN. R.F.=1)  AT K=   2, I=   1, J=  77


 TOTAL NUMBER OF POINT SOURCES/SINKS PRESENT IN THE FLOW MODEL =    62

 MAXIMUM STEPSIZE WHICH MEETS STABILITY CRITERION OF THE SINK & SOURCE TERM
 =  136.0    (WHEN MIN. R.F.=1)  AT K=   2, I=   1, J=   1

 MAXIMUM STEPSIZE WHICH MEETS STABILITY CRITERION OF THE DISPERSION TERM
 =  20.29    (WHEN MIN. R.F.=1)  AT K=   1, I=   1, J=  31
     1 CALLS TO GCG PACKAGE FOR TRANSPORT TIME STEP   4 IN FLOW TIME STEP 706 STRESS PERIOD   1
     5 TOTAL ITERATIONS
  MAXIMUM CONCENTRATION CHANGES FOR EACH ITERATION:
  MAX. CHANGE LAYER,ROW,COL MAX. CHANGE LAYER,ROW,COL MAX. CHANGE LAYER,ROW,COL MAX. CHANGE LAYER,ROW,COL MAX. CHANGE LAYER,ROW,COL
 ------------------------------------------------------------------------------------------------------------------------------------
   0.1548E-01 (  2,  1, 78)  0.2687E-03 (  2,  1, 76)  0.7382E-05 (  2,  1, 79)  0.2461E-06 (  3,  1, 79)  0.5585E-08 (  4,  1, 75)


                                          ================================================
                                                         FROM TIME =   7060.0     TO    7070.0    

 
 SOLVING FOR HEAD 
 FLOW MODEL IS TRANSIENT
 FLOW MODEL CONTAINS CONSTANT-HEAD CELLS


 MAXIMUM STEPSIZE DURING WHICH ANY PARTICLE CANNOT MOVE MORE THAN ONE CELL
 =  5.775    (WHEN MIN. R.F.=1)  AT K=  28, I=   1, J=  52

 MAXIMUM STEPSIZE WHICH MEETS STABILITY CRITERION OF THE ADVECTION TERM
 (FOR PURE FINITE-DIFFERENCE OPTION, MIXELM=0) 
 =  4.483    (WHEN MIN. R.F.=1)  AT K=   2, I=   1, J=  77


 TOTAL NUMBER OF POINT SOURCES/SINKS PRESENT IN THE FLOW MODEL =    62

 MAXIMUM STEPSIZE WHICH MEETS STABILITY CRITERION OF THE SINK & SOURCE TERM
 =  139.4    (WHEN MIN. R.F.=1)  AT K=   2, I=   1, J=   1

 MAXIMUM STEPSIZE WHICH MEETS STABILITY CRITERION OF THE DISPERSION TERM
 =  20.29    (WHEN MIN. R.F.=1)  AT K=   1, I=   1, J=  31


     1 CALLS TO GCG PACKAGE FOR TRANSPORT TIME STEP   1 IN FLOW TIME STEP 707 STRESS PERIOD   1
     6 TOTAL ITERATIONS

 NO OUTPUT CONTROL FOR STRESS PERIOD    1   TIME STEP 707
 
 SOLVING FOR HEAD 
 FLOW MODEL IS TRANSIENT
 FLOW MODEL CONTAINS CONSTANT-HEAD CELLS


 MAXIMUM STEPSIZE DURING WHICH ANY PARTICLE CANNOT MOVE MORE THAN ONE CELL
 =  5.522    (WHEN MIN. R.F.=1)  AT K=   4, I=   1, J=  47

 MAXIMUM STEPSIZE WHICH MEETS STABILITY CRITERION OF THE ADVECTION TERM
 (FOR PURE FINITE-DIFFERENCE OPTION, MIXELM=0) 
 =  4.258    (WHEN MIN. R.F.=1)  AT K=   2, I=   1, J=  40


 TOTAL NUMBER OF POINT SOURCES/SINKS PRESENT IN THE FLOW MODEL =    62

 MAXIMUM STEPSIZE WHICH MEETS STABILITY CRITERION OF THE SINK & SOURCE TERM
 =  134.6    (WHEN MIN. R.F.=1)  AT K=   2, I=   1, J=   1

 MAXIMUM STEPSIZE WHICH MEETS STABILITY CRITERION OF THE DISPERSION TERM
 =  20.29    (WHEN MIN. R.F.=1)  AT K=   1, I=   1, J=  31
     1 CALLS TO GCG PACKAGE FOR TRANSPORT TIME STEP   2 IN FLOW TIME STEP 707 STRESS PERIOD   1
     6 TOTAL ITERATIONS
 
 SOLVING FOR HEAD 
 FLOW MODEL IS TRANSIENT
 FLOW MODEL CONTAINS CONSTANT-HEAD CELLS


 MAXIMUM STEPSIZE DURING WHICH ANY PARTICLE CANNOT MOVE MORE THAN ONE CELL
 =  5.262    (WHEN MIN. R.F.=1)  AT K=   4, I=   1, J=  47

 MAXIMUM STEPSIZE WHICH MEETS STABILITY CRITERION OF THE ADVECTION TERM
 (FOR PURE FINITE-DIFFERENCE OPTION, MIXELM=0) 
 =  4.046    (WHEN MIN. R.F.=1)  AT K=   2, I=   1, J=  40


 TOTAL NUMBER OF POINT SOURCES/SINKS PRESENT IN THE FLOW MODEL =    62

 MAXIMUM STEPSIZE WHICH MEETS STABILITY CRITERION OF THE SINK & SOURCE TERM
 =  135.3    (WHEN MIN. R.F.=1)  AT K=   2, I=   1, J=   1

 MAXIMUM STEPSIZE WHICH MEETS STABILITY CRITERION OF THE DISPERSION TERM
 =  20.29    (WHEN MIN. R.F.=1)  AT K=   1, I=   1, J=  31
     1 CALLS TO GCG PACKAGE FOR TRANSPORT TIME STEP   3 IN FLOW TIME STEP 707 STRESS PERIOD   1
     6 TOTAL ITERATIONS
 
 SOLVING FOR HEAD 
 FLOW MODEL IS TRANSIENT
 FLOW MODEL CONTAINS CONSTANT-HEAD CELLS


 MAXIMUM STEPSIZE DURING WHICH ANY PARTICLE CANNOT MOVE MORE THAN ONE CELL
 =  5.108    (WHEN MIN. R.F.=1)  AT K=   4, I=   1, J=  47

 MAXIMUM STEPSIZE WHICH MEETS STABILITY CRITERION OF THE ADVECTION TERM
 (FOR PURE FINITE-DIFFERENCE OPTION, MIXELM=0) 
 =  4.069    (WHEN MIN. R.F.=1)  AT K=   2, I=   1, J=  40


 TOTAL NUMBER OF POINT SOURCES/SINKS PRESENT IN THE FLOW MODEL =    62

 MAXIMUM STEPSIZE WHICH MEETS STABILITY CRITERION OF THE SINK & SOURCE TERM
 =  132.5    (WHEN MIN. R.F.=1)  AT K=   2, I=   1, J=   1

 MAXIMUM STEPSIZE WHICH MEETS STABILITY CRITERION OF THE DISPERSION TERM
 =  20.29    (WHEN MIN. R.F.=1)  AT K=   1, I=   1, J=  31
     1 CALLS TO GCG PACKAGE FOR TRANSPORT TIME STEP   4 IN FLOW TIME STEP 707 STRESS PERIOD   1
     3 TOTAL ITERATIONS
  MAXIMUM CONCENTRATION CHANGES FOR EACH ITERATION:
  MAX. CHANGE LAYER,ROW,COL MAX. CHANGE LAYER,ROW,COL MAX. CHANGE LAYER,ROW,COL MAX. CHANGE LAYER,ROW,COL MAX. CHANGE LAYER,ROW,COL
 ------------------------------------------------------------------------------------------------------------------------------------
   0.2476E-02 (  2,  1, 39)  0.9206E-05 (  2,  1, 77)  0.4865E-07 (  2,  1, 78)


                                          ================================================
                                                         FROM TIME =   7070.0     TO    7080.0    

 
 SOLVING FOR HEAD 
 FLOW MODEL IS TRANSIENT
 FLOW MODEL CONTAINS CONSTANT-HEAD CELLS


 MAXIMUM STEPSIZE DURING WHICH ANY PARTICLE CANNOT MOVE MORE THAN ONE CELL
 =  5.100    (WHEN MIN. R.F.=1)  AT K=   4, I=   1, J=  47

 MAXIMUM STEPSIZE WHICH MEETS STABILITY CRITERION OF THE ADVECTION TERM
 (FOR PURE FINITE-DIFFERENCE OPTION, MIXELM=0) 
 =  4.085    (WHEN MIN. R.F.=1)  AT K=   2, I=   1, J=  40


 TOTAL NUMBER OF POINT SOURCES/SINKS PRESENT IN THE FLOW MODEL =    62

 MAXIMUM STEPSIZE WHICH MEETS STABILITY CRITERION OF THE SINK & SOURCE TERM
 =  140.7    (WHEN MIN. R.F.=1)  AT K=   2, I=   1, J=   1

 MAXIMUM STEPSIZE WHICH MEETS STABILITY CRITERION OF THE DISPERSION TERM
 =  20.29    (WHEN MIN. R.F.=1)  AT K=   1, I=   1, J=  31


     1 CALLS TO GCG PACKAGE FOR TRANSPORT TIME STEP   1 IN FLOW TIME STEP 708 STRESS PERIOD   1
     6 TOTAL ITERATIONS

 NO OUTPUT CONTROL FOR STRESS PERIOD    1   TIME STEP 708
 
 SOLVING FOR HEAD 
 FLOW MODEL IS TRANSIENT
 FLOW MODEL CONTAINS CONSTANT-HEAD CELLS


 MAXIMUM STEPSIZE DURING WHICH ANY PARTICLE CANNOT MOVE MORE THAN ONE CELL
 =  5.035    (WHEN MIN. R.F.=1)  AT K=   4, I=   1, J=  47

 MAXIMUM STEPSIZE WHICH MEETS STABILITY CRITERION OF THE ADVECTION TERM
 (FOR PURE FINITE-DIFFERENCE OPTION, MIXELM=0) 
 =  4.225    (WHEN MIN. R.F.=1)  AT K=   2, I=   1, J=  41


 TOTAL NUMBER OF POINT SOURCES/SINKS PRESENT IN THE FLOW MODEL =    62

 MAXIMUM STEPSIZE WHICH MEETS STABILITY CRITERION OF THE SINK & SOURCE TERM
 =  136.8    (WHEN MIN. R.F.=1)  AT K=   2, I=   1, J=   1

 MAXIMUM STEPSIZE WHICH MEETS STABILITY CRITERION OF THE DISPERSION TERM
 =  20.29    (WHEN MIN. R.F.=1)  AT K=   1, I=   1, J=  31
     1 CALLS TO GCG PACKAGE FOR TRANSPORT TIME STEP   2 IN FLOW TIME STEP 708 STRESS PERIOD   1
     6 TOTAL ITERATIONS
 
 SOLVING FOR HEAD 
 FLOW MODEL IS TRANSIENT
 FLOW MODEL CONTAINS CONSTANT-HEAD CELLS


 MAXIMUM STEPSIZE DURING WHICH ANY PARTICLE CANNOT MOVE MORE THAN ONE CELL
 =  5.034    (WHEN MIN. R.F.=1)  AT K=   4, I=   1, J=  47

 MAXIMUM STEPSIZE WHICH MEETS STABILITY CRITERION OF THE ADVECTION TERM
 (FOR PURE FINITE-DIFFERENCE OPTION, MIXELM=0) 
 =  3.903    (WHEN MIN. R.F.=1)  AT K=   2, I=   1, J=  41


 TOTAL NUMBER OF POINT SOURCES/SINKS PRESENT IN THE FLOW MODEL =    62

 MAXIMUM STEPSIZE WHICH MEETS STABILITY CRITERION OF THE SINK & SOURCE TERM
 =  135.2    (WHEN MIN. R.F.=1)  AT K=   2, I=   1, J=   1

 MAXIMUM STEPSIZE WHICH MEETS STABILITY CRITERION OF THE DISPERSION TERM
 =  20.29    (WHEN MIN. R.F.=1)  AT K=   1, I=   1, J=  31
     1 CALLS TO GCG PACKAGE FOR TRANSPORT TIME STEP   3 IN FLOW TIME STEP 708 STRESS PERIOD   1
     6 TOTAL ITERATIONS
 
 SOLVING FOR HEAD 
 FLOW MODEL IS TRANSIENT
 FLOW MODEL CONTAINS CONSTANT-HEAD CELLS


 MAXIMUM STEPSIZE DURING WHICH ANY PARTICLE CANNOT MOVE MORE THAN ONE CELL
 =  5.090    (WHEN MIN. R.F.=1)  AT K=   4, I=   1, J=  47

 MAXIMUM STEPSIZE WHICH MEETS STABILITY CRITERION OF THE ADVECTION TERM
 (FOR PURE FINITE-DIFFERENCE OPTION, MIXELM=0) 
 =  3.797    (WHEN MIN. R.F.=1)  AT K=   2, I=   1, J=  41


 TOTAL NUMBER OF POINT SOURCES/SINKS PRESENT IN THE FLOW MODEL =    62

 MAXIMUM STEPSIZE WHICH MEETS STABILITY CRITERION OF THE SINK & SOURCE TERM
 =  133.8    (WHEN MIN. R.F.=1)  AT K=   2, I=   1, J=   1

 MAXIMUM STEPSIZE WHICH MEETS STABILITY CRITERION OF THE DISPERSION TERM
 =  20.29    (WHEN MIN. R.F.=1)  AT K=   1, I=   1, J=  31
     1 CALLS TO GCG PACKAGE FOR TRANSPORT TIME STEP   4 IN FLOW TIME STEP 708 STRESS PERIOD   1
     4 TOTAL ITERATIONS
  MAXIMUM CONCENTRATION CHANGES FOR EACH ITERATION:
  MAX. CHANGE LAYER,ROW,COL MAX. CHANGE LAYER,ROW,COL MAX. CHANGE LAYER,ROW,COL MAX. CHANGE LAYER,ROW,COL MAX. CHANGE LAYER,ROW,COL
 ------------------------------------------------------------------------------------------------------------------------------------
   0.7581E-02 (  2,  1, 77)  0.9140E-04 (  2,  1, 83)  0.1404E-05 (  3,  1, 42)  0.2652E-07 (  3,  1, 44)


                                          ================================================
                                                         FROM TIME =   7080.0     TO    7090.0    

 
 SOLVING FOR HEAD 
 FLOW MODEL IS TRANSIENT
 FLOW MODEL CONTAINS CONSTANT-HEAD CELLS


 MAXIMUM STEPSIZE DURING WHICH ANY PARTICLE CANNOT MOVE MORE THAN ONE CELL
 =  5.115    (WHEN MIN. R.F.=1)  AT K=   4, I=   1, J=  47

 MAXIMUM STEPSIZE WHICH MEETS STABILITY CRITERION OF THE ADVECTION TERM
 (FOR PURE FINITE-DIFFERENCE OPTION, MIXELM=0) 
 =  3.796    (WHEN MIN. R.F.=1)  AT K=   2, I=   1, J=  41


 TOTAL NUMBER OF POINT SOURCES/SINKS PRESENT IN THE FLOW MODEL =    62

 MAXIMUM STEPSIZE WHICH MEETS STABILITY CRITERION OF THE SINK & SOURCE TERM
 =  144.2    (WHEN MIN. R.F.=1)  AT K=   2, I=   1, J=   1

 MAXIMUM STEPSIZE WHICH MEETS STABILITY CRITERION OF THE DISPERSION TERM
 =  20.29    (WHEN MIN. R.F.=1)  AT K=   1, I=   1, J=  31


     1 CALLS TO GCG PACKAGE FOR TRANSPORT TIME STEP   1 IN FLOW TIME STEP 709 STRESS PERIOD   1
     6 TOTAL ITERATIONS

 NO OUTPUT CONTROL FOR STRESS PERIOD    1   TIME STEP 709
 
 SOLVING FOR HEAD 
 FLOW MODEL IS TRANSIENT
 FLOW MODEL CONTAINS CONSTANT-HEAD CELLS


 MAXIMUM STEPSIZE DURING WHICH ANY PARTICLE CANNOT MOVE MORE THAN ONE CELL
 =  5.172    (WHEN MIN. R.F.=1)  AT K=   5, I=   1, J=  47

 MAXIMUM STEPSIZE WHICH MEETS STABILITY CRITERION OF THE ADVECTION TERM
 (FOR PURE FINITE-DIFFERENCE OPTION, MIXELM=0) 
 =  3.887    (WHEN MIN. R.F.=1)  AT K=   2, I=   1, J=  41


 TOTAL NUMBER OF POINT SOURCES/SINKS PRESENT IN THE FLOW MODEL =    62

 MAXIMUM STEPSIZE WHICH MEETS STABILITY CRITERION OF THE SINK & SOURCE TERM
 =  141.1    (WHEN MIN. R.F.=1)  AT K=   2, I=   1, J=   1

 MAXIMUM STEPSIZE WHICH MEETS STABILITY CRITERION OF THE DISPERSION TERM
 =  20.29    (WHEN MIN. R.F.=1)  AT K=   1, I=   1, J=  31
     1 CALLS TO GCG PACKAGE FOR TRANSPORT TIME STEP   2 IN FLOW TIME STEP 709 STRESS PERIOD   1
     6 TOTAL ITERATIONS
 
 SOLVING FOR HEAD 
 FLOW MODEL IS TRANSIENT
 FLOW MODEL CONTAINS CONSTANT-HEAD CELLS


 MAXIMUM STEPSIZE DURING WHICH ANY PARTICLE CANNOT MOVE MORE THAN ONE CELL
 =  5.255    (WHEN MIN. R.F.=1)  AT K=   5, I=   1, J=  47

 MAXIMUM STEPSIZE WHICH MEETS STABILITY CRITERION OF THE ADVECTION TERM
 (FOR PURE FINITE-DIFFERENCE OPTION, MIXELM=0) 
 =  4.134    (WHEN MIN. R.F.=1)  AT K=   2, I=   1, J=  42


 TOTAL NUMBER OF POINT SOURCES/SINKS PRESENT IN THE FLOW MODEL =    62

 MAXIMUM STEPSIZE WHICH MEETS STABILITY CRITERION OF THE SINK & SOURCE TERM
 =  141.3    (WHEN MIN. R.F.=1)  AT K=   2, I=   1, J=   1

 MAXIMUM STEPSIZE WHICH MEETS STABILITY CRITERION OF THE DISPERSION TERM
 =  20.29    (WHEN MIN. R.F.=1)  AT K=   1, I=   1, J=  31
     1 CALLS TO GCG PACKAGE FOR TRANSPORT TIME STEP   3 IN FLOW TIME STEP 709 STRESS PERIOD   1
     6 TOTAL ITERATIONS
 
 SOLVING FOR HEAD 
 FLOW MODEL IS TRANSIENT
 FLOW MODEL CONTAINS CONSTANT-HEAD CELLS


 MAXIMUM STEPSIZE DURING WHICH ANY PARTICLE CANNOT MOVE MORE THAN ONE CELL
 =  5.374    (WHEN MIN. R.F.=1)  AT K=   5, I=   1, J=  47

 MAXIMUM STEPSIZE WHICH MEETS STABILITY CRITERION OF THE ADVECTION TERM
 (FOR PURE FINITE-DIFFERENCE OPTION, MIXELM=0) 
 =  3.855    (WHEN MIN. R.F.=1)  AT K=   2, I=   1, J=  42


 TOTAL NUMBER OF POINT SOURCES/SINKS PRESENT IN THE FLOW MODEL =    62

 MAXIMUM STEPSIZE WHICH MEETS STABILITY CRITERION OF THE SINK & SOURCE TERM
 =  140.9    (WHEN MIN. R.F.=1)  AT K=   2, I=   1, J=   1

 MAXIMUM STEPSIZE WHICH MEETS STABILITY CRITERION OF THE DISPERSION TERM
 =  20.29    (WHEN MIN. R.F.=1)  AT K=   1, I=   1, J=  31
     1 CALLS TO GCG PACKAGE FOR TRANSPORT TIME STEP   4 IN FLOW TIME STEP 709 STRESS PERIOD   1
     5 TOTAL ITERATIONS
  MAXIMUM CONCENTRATION CHANGES FOR EACH ITERATION:
  MAX. CHANGE LAYER,ROW,COL MAX. CHANGE LAYER,ROW,COL MAX. CHANGE LAYER,ROW,COL MAX. CHANGE LAYER,ROW,COL MAX. CHANGE LAYER,ROW,COL
 ------------------------------------------------------------------------------------------------------------------------------------
   0.1558E-01 (  2,  1, 83)  0.3001E-03 (  2,  1, 49)  0.9046E-05 (  2,  1, 45)  0.4690E-06 (  3,  1, 45)  0.1161E-07 (  4,  1, 45)


                                          ================================================
                                                         FROM TIME =   7090.0     TO    7100.0    

 
 SOLVING FOR HEAD 
 FLOW MODEL IS TRANSIENT
 FLOW MODEL CONTAINS CONSTANT-HEAD CELLS


 MAXIMUM STEPSIZE DURING WHICH ANY PARTICLE CANNOT MOVE MORE THAN ONE CELL
 =  5.431    (WHEN MIN. R.F.=1)  AT K=   4, I=   1, J=  74

 MAXIMUM STEPSIZE WHICH MEETS STABILITY CRITERION OF THE ADVECTION TERM
 (FOR PURE FINITE-DIFFERENCE OPTION, MIXELM=0) 
 =  3.790    (WHEN MIN. R.F.=1)  AT K=   2, I=   1, J=  42


 TOTAL NUMBER OF POINT SOURCES/SINKS PRESENT IN THE FLOW MODEL =    62

 MAXIMUM STEPSIZE WHICH MEETS STABILITY CRITERION OF THE SINK & SOURCE TERM
 =  147.0    (WHEN MIN. R.F.=1)  AT K=   2, I=   1, J=   1

 MAXIMUM STEPSIZE WHICH MEETS STABILITY CRITERION OF THE DISPERSION TERM
 =  20.29    (WHEN MIN. R.F.=1)  AT K=   1, I=   1, J=  31


     1 CALLS TO GCG PACKAGE FOR TRANSPORT TIME STEP   1 IN FLOW TIME STEP 710 STRESS PERIOD   1
     6 TOTAL ITERATIONS

 NO OUTPUT CONTROL FOR STRESS PERIOD    1   TIME STEP 710
 
 SOLVING FOR HEAD 
 FLOW MODEL IS TRANSIENT
 FLOW MODEL CONTAINS CONSTANT-HEAD CELLS


 MAXIMUM STEPSIZE DURING WHICH ANY PARTICLE CANNOT MOVE MORE THAN ONE CELL
 =  5.258    (WHEN MIN. R.F.=1)  AT K=   4, I=   1, J=  74

 MAXIMUM STEPSIZE WHICH MEETS STABILITY CRITERION OF THE ADVECTION TERM
 (FOR PURE FINITE-DIFFERENCE OPTION, MIXELM=0) 
 =  3.755    (WHEN MIN. R.F.=1)  AT K=   2, I=   1, J=  42


 TOTAL NUMBER OF POINT SOURCES/SINKS PRESENT IN THE FLOW MODEL =    62

 MAXIMUM STEPSIZE WHICH MEETS STABILITY CRITERION OF THE SINK & SOURCE TERM
 =  144.0    (WHEN MIN. R.F.=1)  AT K=   2, I=   1, J=   1

 MAXIMUM STEPSIZE WHICH MEETS STABILITY CRITERION OF THE DISPERSION TERM
 =  20.29    (WHEN MIN. R.F.=1)  AT K=   1, I=   1, J=  31
     1 CALLS TO GCG PACKAGE FOR TRANSPORT TIME STEP   2 IN FLOW TIME STEP 710 STRESS PERIOD   1
     6 TOTAL ITERATIONS
 
 SOLVING FOR HEAD 
 FLOW MODEL IS TRANSIENT
 FLOW MODEL CONTAINS CONSTANT-HEAD CELLS


 MAXIMUM STEPSIZE DURING WHICH ANY PARTICLE CANNOT MOVE MORE THAN ONE CELL
 =  5.133    (WHEN MIN. R.F.=1)  AT K=   4, I=   1, J=  74

 MAXIMUM STEPSIZE WHICH MEETS STABILITY CRITERION OF THE ADVECTION TERM
 (FOR PURE FINITE-DIFFERENCE OPTION, MIXELM=0) 
 =  3.827    (WHEN MIN. R.F.=1)  AT K=   2, I=   1, J=  42


 TOTAL NUMBER OF POINT SOURCES/SINKS PRESENT IN THE FLOW MODEL =    62

 MAXIMUM STEPSIZE WHICH MEETS STABILITY CRITERION OF THE SINK & SOURCE TERM
 =  148.0    (WHEN MIN. R.F.=1)  AT K=   2, I=   1, J=   1

 MAXIMUM STEPSIZE WHICH MEETS STABILITY CRITERION OF THE DISPERSION TERM
 =  20.29    (WHEN MIN. R.F.=1)  AT K=   1, I=   1, J=  31
     1 CALLS TO GCG PACKAGE FOR TRANSPORT TIME STEP   3 IN FLOW TIME STEP 710 STRESS PERIOD   1
     6 TOTAL ITERATIONS
 
 SOLVING FOR HEAD 
 FLOW MODEL IS TRANSIENT
 FLOW MODEL CONTAINS CONSTANT-HEAD CELLS


 MAXIMUM STEPSIZE DURING WHICH ANY PARTICLE CANNOT MOVE MORE THAN ONE CELL
 =  5.050    (WHEN MIN. R.F.=1)  AT K=   4, I=   1, J=  74

 MAXIMUM STEPSIZE WHICH MEETS STABILITY CRITERION OF THE ADVECTION TERM
 (FOR PURE FINITE-DIFFERENCE OPTION, MIXELM=0) 
 =  4.036    (WHEN MIN. R.F.=1)  AT K=   2, I=   1, J=  80


 TOTAL NUMBER OF POINT SOURCES/SINKS PRESENT IN THE FLOW MODEL =    62

 MAXIMUM STEPSIZE WHICH MEETS STABILITY CRITERION OF THE SINK & SOURCE TERM
 =  148.3    (WHEN MIN. R.F.=1)  AT K=   2, I=   1, J=   1

 MAXIMUM STEPSIZE WHICH MEETS STABILITY CRITERION OF THE DISPERSION TERM
 =  20.29    (WHEN MIN. R.F.=1)  AT K=   1, I=   1, J=  31
     1 CALLS TO GCG PACKAGE FOR TRANSPORT TIME STEP   4 IN FLOW TIME STEP 710 STRESS PERIOD   1
     5 TOTAL ITERATIONS
  MAXIMUM CONCENTRATION CHANGES FOR EACH ITERATION:
  MAX. CHANGE LAYER,ROW,COL MAX. CHANGE LAYER,ROW,COL MAX. CHANGE LAYER,ROW,COL MAX. CHANGE LAYER,ROW,COL MAX. CHANGE LAYER,ROW,COL
 ------------------------------------------------------------------------------------------------------------------------------------
   0.1751E-01 (  2,  1, 82)  0.3419E-03 (  2,  1, 43)  0.1251E-04 (  3,  1, 80)  0.3922E-06 (  3,  1, 45)  0.9724E-08 (  4,  1, 79)


                                          ================================================
                                                         FROM TIME =   7100.0     TO    7110.0    

 
 SOLVING FOR HEAD 
 FLOW MODEL IS TRANSIENT
 FLOW MODEL CONTAINS CONSTANT-HEAD CELLS


 MAXIMUM STEPSIZE DURING WHICH ANY PARTICLE CANNOT MOVE MORE THAN ONE CELL
 =  5.025    (WHEN MIN. R.F.=1)  AT K=   4, I=   1, J=  74

 MAXIMUM STEPSIZE WHICH MEETS STABILITY CRITERION OF THE ADVECTION TERM
 (FOR PURE FINITE-DIFFERENCE OPTION, MIXELM=0) 
 =  3.861    (WHEN MIN. R.F.=1)  AT K=   2, I=   1, J=  80


 TOTAL NUMBER OF POINT SOURCES/SINKS PRESENT IN THE FLOW MODEL =    62

 MAXIMUM STEPSIZE WHICH MEETS STABILITY CRITERION OF THE SINK & SOURCE TERM
 =  152.7    (WHEN MIN. R.F.=1)  AT K=   2, I=   1, J=   1

 MAXIMUM STEPSIZE WHICH MEETS STABILITY CRITERION OF THE DISPERSION TERM
 =  20.29    (WHEN MIN. R.F.=1)  AT K=   1, I=   1, J=  31


     1 CALLS TO GCG PACKAGE FOR TRANSPORT TIME STEP   1 IN FLOW TIME STEP 711 STRESS PERIOD   1
     6 TOTAL ITERATIONS

 NO OUTPUT CONTROL FOR STRESS PERIOD    1   TIME STEP 711
 
 SOLVING FOR HEAD 
 FLOW MODEL IS TRANSIENT
 FLOW MODEL CONTAINS CONSTANT-HEAD CELLS


 MAXIMUM STEPSIZE DURING WHICH ANY PARTICLE CANNOT MOVE MORE THAN ONE CELL
 =  5.003    (WHEN MIN. R.F.=1)  AT K=   4, I=   1, J=  74

 MAXIMUM STEPSIZE WHICH MEETS STABILITY CRITERION OF THE ADVECTION TERM
 (FOR PURE FINITE-DIFFERENCE OPTION, MIXELM=0) 
 =  3.648    (WHEN MIN. R.F.=1)  AT K=   2, I=   1, J=  80


 TOTAL NUMBER OF POINT SOURCES/SINKS PRESENT IN THE FLOW MODEL =    62

 MAXIMUM STEPSIZE WHICH MEETS STABILITY CRITERION OF THE SINK & SOURCE TERM
 =  148.5    (WHEN MIN. R.F.=1)  AT K=   2, I=   1, J=   1

 MAXIMUM STEPSIZE WHICH MEETS STABILITY CRITERION OF THE DISPERSION TERM
 =  20.29    (WHEN MIN. R.F.=1)  AT K=   1, I=   1, J=  31
     1 CALLS TO GCG PACKAGE FOR TRANSPORT TIME STEP   2 IN FLOW TIME STEP 711 STRESS PERIOD   1
     6 TOTAL ITERATIONS
 
 SOLVING FOR HEAD 
 FLOW MODEL IS TRANSIENT
 FLOW MODEL CONTAINS CONSTANT-HEAD CELLS


 MAXIMUM STEPSIZE DURING WHICH ANY PARTICLE CANNOT MOVE MORE THAN ONE CELL
 =  5.023    (WHEN MIN. R.F.=1)  AT K=   4, I=   1, J=  74

 MAXIMUM STEPSIZE WHICH MEETS STABILITY CRITERION OF THE ADVECTION TERM
 (FOR PURE FINITE-DIFFERENCE OPTION, MIXELM=0) 
 =  3.617    (WHEN MIN. R.F.=1)  AT K=   2, I=   1, J=  80


 TOTAL NUMBER OF POINT SOURCES/SINKS PRESENT IN THE FLOW MODEL =    62

 MAXIMUM STEPSIZE WHICH MEETS STABILITY CRITERION OF THE SINK & SOURCE TERM
 =  149.6    (WHEN MIN. R.F.=1)  AT K=   2, I=   1, J=   1

 MAXIMUM STEPSIZE WHICH MEETS STABILITY CRITERION OF THE DISPERSION TERM
 =  20.29    (WHEN MIN. R.F.=1)  AT K=   1, I=   1, J=  31
     1 CALLS TO GCG PACKAGE FOR TRANSPORT TIME STEP   3 IN FLOW TIME STEP 711 STRESS PERIOD   1
     6 TOTAL ITERATIONS
 
 SOLVING FOR HEAD 
 FLOW MODEL IS TRANSIENT
 FLOW MODEL CONTAINS CONSTANT-HEAD CELLS


 MAXIMUM STEPSIZE DURING WHICH ANY PARTICLE CANNOT MOVE MORE THAN ONE CELL
 =  5.082    (WHEN MIN. R.F.=1)  AT K=   4, I=   1, J=  74

 MAXIMUM STEPSIZE WHICH MEETS STABILITY CRITERION OF THE ADVECTION TERM
 (FOR PURE FINITE-DIFFERENCE OPTION, MIXELM=0) 
 =  3.776    (WHEN MIN. R.F.=1)  AT K=   2, I=   1, J=  80


 TOTAL NUMBER OF POINT SOURCES/SINKS PRESENT IN THE FLOW MODEL =    62

 MAXIMUM STEPSIZE WHICH MEETS STABILITY CRITERION OF THE SINK & SOURCE TERM
 =  152.7    (WHEN MIN. R.F.=1)  AT K=   2, I=   1, J=   1

 MAXIMUM STEPSIZE WHICH MEETS STABILITY CRITERION OF THE DISPERSION TERM
 =  20.29    (WHEN MIN. R.F.=1)  AT K=   1, I=   1, J=  31
     1 CALLS TO GCG PACKAGE FOR TRANSPORT TIME STEP   4 IN FLOW TIME STEP 711 STRESS PERIOD   1
     5 TOTAL ITERATIONS
  MAXIMUM CONCENTRATION CHANGES FOR EACH ITERATION:
  MAX. CHANGE LAYER,ROW,COL MAX. CHANGE LAYER,ROW,COL MAX. CHANGE LAYER,ROW,COL MAX. CHANGE LAYER,ROW,COL MAX. CHANGE LAYER,ROW,COL
 ------------------------------------------------------------------------------------------------------------------------------------
   0.1653E-01 (  2,  1, 81)  0.3213E-03 (  2,  1, 79)  0.1188E-04 (  3,  1, 79)  0.2995E-06 (  3,  1, 82)  0.7149E-08 (  3,  1, 83)


                                          ================================================
                                                         FROM TIME =   7110.0     TO    7120.0    

 
 SOLVING FOR HEAD 
 FLOW MODEL IS TRANSIENT
 FLOW MODEL CONTAINS CONSTANT-HEAD CELLS


 MAXIMUM STEPSIZE DURING WHICH ANY PARTICLE CANNOT MOVE MORE THAN ONE CELL
 =  5.108    (WHEN MIN. R.F.=1)  AT K=   5, I=   1, J=  74

 MAXIMUM STEPSIZE WHICH MEETS STABILITY CRITERION OF THE ADVECTION TERM
 (FOR PURE FINITE-DIFFERENCE OPTION, MIXELM=0) 
 =  3.877    (WHEN MIN. R.F.=1)  AT K=   2, I=   1, J=  43


 TOTAL NUMBER OF POINT SOURCES/SINKS PRESENT IN THE FLOW MODEL =    62

 MAXIMUM STEPSIZE WHICH MEETS STABILITY CRITERION OF THE SINK & SOURCE TERM
 =  162.4    (WHEN MIN. R.F.=1)  AT K=   2, I=   1, J=   1

 MAXIMUM STEPSIZE WHICH MEETS STABILITY CRITERION OF THE DISPERSION TERM
 =  20.29    (WHEN MIN. R.F.=1)  AT K=   1, I=   1, J=  31


     1 CALLS TO GCG PACKAGE FOR TRANSPORT TIME STEP   1 IN FLOW TIME STEP 712 STRESS PERIOD   1
     6 TOTAL ITERATIONS

 NO OUTPUT CONTROL FOR STRESS PERIOD    1   TIME STEP 712
 
 SOLVING FOR HEAD 
 FLOW MODEL IS TRANSIENT
 FLOW MODEL CONTAINS CONSTANT-HEAD CELLS


 MAXIMUM STEPSIZE DURING WHICH ANY PARTICLE CANNOT MOVE MORE THAN ONE CELL
 =  5.162    (WHEN MIN. R.F.=1)  AT K=   5, I=   1, J=  74

 MAXIMUM STEPSIZE WHICH MEETS STABILITY CRITERION OF THE ADVECTION TERM
 (FOR PURE FINITE-DIFFERENCE OPTION, MIXELM=0) 
 =  3.742    (WHEN MIN. R.F.=1)  AT K=   2, I=   1, J=  79


 TOTAL NUMBER OF POINT SOURCES/SINKS PRESENT IN THE FLOW MODEL =    62

 MAXIMUM STEPSIZE WHICH MEETS STABILITY CRITERION OF THE SINK & SOURCE TERM
 =  159.7    (WHEN MIN. R.F.=1)  AT K=   2, I=   1, J=   1

 MAXIMUM STEPSIZE WHICH MEETS STABILITY CRITERION OF THE DISPERSION TERM
 =  20.29    (WHEN MIN. R.F.=1)  AT K=   1, I=   1, J=  31
     1 CALLS TO GCG PACKAGE FOR TRANSPORT TIME STEP   2 IN FLOW TIME STEP 712 STRESS PERIOD   1
     6 TOTAL ITERATIONS
 
 SOLVING FOR HEAD 
 FLOW MODEL IS TRANSIENT
 FLOW MODEL CONTAINS CONSTANT-HEAD CELLS


 MAXIMUM STEPSIZE DURING WHICH ANY PARTICLE CANNOT MOVE MORE THAN ONE CELL
 =  5.251    (WHEN MIN. R.F.=1)  AT K=   5, I=   1, J=  74

 MAXIMUM STEPSIZE WHICH MEETS STABILITY CRITERION OF THE ADVECTION TERM
 (FOR PURE FINITE-DIFFERENCE OPTION, MIXELM=0) 
 =  3.581    (WHEN MIN. R.F.=1)  AT K=   2, I=   1, J=  79


 TOTAL NUMBER OF POINT SOURCES/SINKS PRESENT IN THE FLOW MODEL =    62

 MAXIMUM STEPSIZE WHICH MEETS STABILITY CRITERION OF THE SINK & SOURCE TERM
 =  161.4    (WHEN MIN. R.F.=1)  AT K=   2, I=   1, J=   1

 MAXIMUM STEPSIZE WHICH MEETS STABILITY CRITERION OF THE DISPERSION TERM
 =  20.29    (WHEN MIN. R.F.=1)  AT K=   1, I=   1, J=  31
     1 CALLS TO GCG PACKAGE FOR TRANSPORT TIME STEP   3 IN FLOW TIME STEP 712 STRESS PERIOD   1
     6 TOTAL ITERATIONS
 
 SOLVING FOR HEAD 
 FLOW MODEL IS TRANSIENT
 FLOW MODEL CONTAINS CONSTANT-HEAD CELLS


 MAXIMUM STEPSIZE DURING WHICH ANY PARTICLE CANNOT MOVE MORE THAN ONE CELL
 =  5.368    (WHEN MIN. R.F.=1)  AT K=   5, I=   1, J=  74

 MAXIMUM STEPSIZE WHICH MEETS STABILITY CRITERION OF THE ADVECTION TERM
 (FOR PURE FINITE-DIFFERENCE OPTION, MIXELM=0) 
 =  3.572    (WHEN MIN. R.F.=1)  AT K=   2, I=   1, J=  79


 TOTAL NUMBER OF POINT SOURCES/SINKS PRESENT IN THE FLOW MODEL =    62

 MAXIMUM STEPSIZE WHICH MEETS STABILITY CRITERION OF THE SINK & SOURCE TERM
 =  162.4    (WHEN MIN. R.F.=1)  AT K=   2, I=   1, J=   1

 MAXIMUM STEPSIZE WHICH MEETS STABILITY CRITERION OF THE DISPERSION TERM
 =  20.29    (WHEN MIN. R.F.=1)  AT K=   1, I=   1, J=  31
     1 CALLS TO GCG PACKAGE FOR TRANSPORT TIME STEP   4 IN FLOW TIME STEP 712 STRESS PERIOD   1
     5 TOTAL ITERATIONS
  MAXIMUM CONCENTRATION CHANGES FOR EACH ITERATION:
  MAX. CHANGE LAYER,ROW,COL MAX. CHANGE LAYER,ROW,COL MAX. CHANGE LAYER,ROW,COL MAX. CHANGE LAYER,ROW,COL MAX. CHANGE LAYER,ROW,COL
 ------------------------------------------------------------------------------------------------------------------------------------
   0.1761E-01 (  2,  1, 80)  0.3776E-03 (  2,  1, 80)  0.1234E-04 (  3,  1, 78)  0.5922E-06 (  3,  1, 76)  0.1418E-07 (  4,  1, 76)


                                          ================================================
                                                         FROM TIME =   7120.0     TO    7130.0    

 
 SOLVING FOR HEAD 
 FLOW MODEL IS TRANSIENT
 FLOW MODEL CONTAINS CONSTANT-HEAD CELLS


 MAXIMUM STEPSIZE DURING WHICH ANY PARTICLE CANNOT MOVE MORE THAN ONE CELL
 =  5.433    (WHEN MIN. R.F.=1)  AT K=   6, I=   1, J=  74

 MAXIMUM STEPSIZE WHICH MEETS STABILITY CRITERION OF THE ADVECTION TERM
 (FOR PURE FINITE-DIFFERENCE OPTION, MIXELM=0) 
 =  3.623    (WHEN MIN. R.F.=1)  AT K=   2, I=   1, J=  79


 TOTAL NUMBER OF POINT SOURCES/SINKS PRESENT IN THE FLOW MODEL =    62

 MAXIMUM STEPSIZE WHICH MEETS STABILITY CRITERION OF THE SINK & SOURCE TERM
 =  169.2    (WHEN MIN. R.F.=1)  AT K=   2, I=   1, J=   1

 MAXIMUM STEPSIZE WHICH MEETS STABILITY CRITERION OF THE DISPERSION TERM
 =  20.29    (WHEN MIN. R.F.=1)  AT K=   1, I=   1, J=  31


     1 CALLS TO GCG PACKAGE FOR TRANSPORT TIME STEP   1 IN FLOW TIME STEP 713 STRESS PERIOD   1
     6 TOTAL ITERATIONS

 NO OUTPUT CONTROL FOR STRESS PERIOD    1   TIME STEP 713
 
 SOLVING FOR HEAD 
 FLOW MODEL IS TRANSIENT
 FLOW MODEL CONTAINS CONSTANT-HEAD CELLS


 MAXIMUM STEPSIZE DURING WHICH ANY PARTICLE CANNOT MOVE MORE THAN ONE CELL
 =  5.527    (WHEN MIN. R.F.=1)  AT K=   6, I=   1, J=  74

 MAXIMUM STEPSIZE WHICH MEETS STABILITY CRITERION OF THE ADVECTION TERM
 (FOR PURE FINITE-DIFFERENCE OPTION, MIXELM=0) 
 =  3.836    (WHEN MIN. R.F.=1)  AT K=   2, I=   1, J=  79


 TOTAL NUMBER OF POINT SOURCES/SINKS PRESENT IN THE FLOW MODEL =    62

 MAXIMUM STEPSIZE WHICH MEETS STABILITY CRITERION OF THE SINK & SOURCE TERM
 =  166.4    (WHEN MIN. R.F.=1)  AT K=   2, I=   1, J=   1

 MAXIMUM STEPSIZE WHICH MEETS STABILITY CRITERION OF THE DISPERSION TERM
 =  20.29    (WHEN MIN. R.F.=1)  AT K=   1, I=   1, J=  31
     1 CALLS TO GCG PACKAGE FOR TRANSPORT TIME STEP   2 IN FLOW TIME STEP 713 STRESS PERIOD   1
     6 TOTAL ITERATIONS
 
 SOLVING FOR HEAD 
 FLOW MODEL IS TRANSIENT
 FLOW MODEL CONTAINS CONSTANT-HEAD CELLS


 MAXIMUM STEPSIZE DURING WHICH ANY PARTICLE CANNOT MOVE MORE THAN ONE CELL
 =  5.649    (WHEN MIN. R.F.=1)  AT K=   6, I=   1, J=  74

 MAXIMUM STEPSIZE WHICH MEETS STABILITY CRITERION OF THE ADVECTION TERM
 (FOR PURE FINITE-DIFFERENCE OPTION, MIXELM=0) 
 =  3.971    (WHEN MIN. R.F.=1)  AT K=   2, I=   1, J=  78


 TOTAL NUMBER OF POINT SOURCES/SINKS PRESENT IN THE FLOW MODEL =    62

 MAXIMUM STEPSIZE WHICH MEETS STABILITY CRITERION OF THE SINK & SOURCE TERM
 =  167.9    (WHEN MIN. R.F.=1)  AT K=   2, I=   1, J=   1

 MAXIMUM STEPSIZE WHICH MEETS STABILITY CRITERION OF THE DISPERSION TERM
 =  20.29    (WHEN MIN. R.F.=1)  AT K=   1, I=   1, J=  31
     1 CALLS TO GCG PACKAGE FOR TRANSPORT TIME STEP   3 IN FLOW TIME STEP 713 STRESS PERIOD   1
     6 TOTAL ITERATIONS
 
 SOLVING FOR HEAD 
 FLOW MODEL IS TRANSIENT
 FLOW MODEL CONTAINS CONSTANT-HEAD CELLS


 MAXIMUM STEPSIZE DURING WHICH ANY PARTICLE CANNOT MOVE MORE THAN ONE CELL
 =  5.782    (WHEN MIN. R.F.=1)  AT K=  28, I=   1, J=  52

 MAXIMUM STEPSIZE WHICH MEETS STABILITY CRITERION OF THE ADVECTION TERM
 (FOR PURE FINITE-DIFFERENCE OPTION, MIXELM=0) 
 =  3.728    (WHEN MIN. R.F.=1)  AT K=   2, I=   1, J=  78


 TOTAL NUMBER OF POINT SOURCES/SINKS PRESENT IN THE FLOW MODEL =    62

 MAXIMUM STEPSIZE WHICH MEETS STABILITY CRITERION OF THE SINK & SOURCE TERM
 =  168.3    (WHEN MIN. R.F.=1)  AT K=   2, I=   1, J=   1

 MAXIMUM STEPSIZE WHICH MEETS STABILITY CRITERION OF THE DISPERSION TERM
 =  20.29    (WHEN MIN. R.F.=1)  AT K=   1, I=   1, J=  31
     1 CALLS TO GCG PACKAGE FOR TRANSPORT TIME STEP   4 IN FLOW TIME STEP 713 STRESS PERIOD   1
     5 TOTAL ITERATIONS
  MAXIMUM CONCENTRATION CHANGES FOR EACH ITERATION:
  MAX. CHANGE LAYER,ROW,COL MAX. CHANGE LAYER,ROW,COL MAX. CHANGE LAYER,ROW,COL MAX. CHANGE LAYER,ROW,COL MAX. CHANGE LAYER,ROW,COL
 ------------------------------------------------------------------------------------------------------------------------------------
   0.1920E-01 (  2,  1, 43)  0.5572E-03 (  2,  1, 78)  0.1586E-04 (  3,  1, 74)  0.7286E-06 (  3,  1, 42)  0.2244E-07 (  3,  1, 77)


                                          ================================================
                                                         FROM TIME =   7130.0     TO    7140.0    

 
 SOLVING FOR HEAD 
 FLOW MODEL IS TRANSIENT
 FLOW MODEL CONTAINS CONSTANT-HEAD CELLS


 MAXIMUM STEPSIZE DURING WHICH ANY PARTICLE CANNOT MOVE MORE THAN ONE CELL
 =  5.784    (WHEN MIN. R.F.=1)  AT K=  28, I=   1, J=  52

 MAXIMUM STEPSIZE WHICH MEETS STABILITY CRITERION OF THE ADVECTION TERM
 (FOR PURE FINITE-DIFFERENCE OPTION, MIXELM=0) 
 =  3.672    (WHEN MIN. R.F.=1)  AT K=   2, I=   1, J=  78


 TOTAL NUMBER OF POINT SOURCES/SINKS PRESENT IN THE FLOW MODEL =    62

 MAXIMUM STEPSIZE WHICH MEETS STABILITY CRITERION OF THE SINK & SOURCE TERM
 =  171.7    (WHEN MIN. R.F.=1)  AT K=   2, I=   1, J=   1

 MAXIMUM STEPSIZE WHICH MEETS STABILITY CRITERION OF THE DISPERSION TERM
 =  20.29    (WHEN MIN. R.F.=1)  AT K=   1, I=   1, J=  31


     1 CALLS TO GCG PACKAGE FOR TRANSPORT TIME STEP   1 IN FLOW TIME STEP 714 STRESS PERIOD   1
     6 TOTAL ITERATIONS

 NO OUTPUT CONTROL FOR STRESS PERIOD    1   TIME STEP 714
 
 SOLVING FOR HEAD 
 FLOW MODEL IS TRANSIENT
 FLOW MODEL CONTAINS CONSTANT-HEAD CELLS


 MAXIMUM STEPSIZE DURING WHICH ANY PARTICLE CANNOT MOVE MORE THAN ONE CELL
 =  5.783    (WHEN MIN. R.F.=1)  AT K=  28, I=   1, J=  52

 MAXIMUM STEPSIZE WHICH MEETS STABILITY CRITERION OF THE ADVECTION TERM
 (FOR PURE FINITE-DIFFERENCE OPTION, MIXELM=0) 
 =  3.668    (WHEN MIN. R.F.=1)  AT K=   2, I=   1, J=  78


 TOTAL NUMBER OF POINT SOURCES/SINKS PRESENT IN THE FLOW MODEL =    62

 MAXIMUM STEPSIZE WHICH MEETS STABILITY CRITERION OF THE SINK & SOURCE TERM
 =  168.7    (WHEN MIN. R.F.=1)  AT K=   2, I=   1, J=   1

 MAXIMUM STEPSIZE WHICH MEETS STABILITY CRITERION OF THE DISPERSION TERM
 =  20.29    (WHEN MIN. R.F.=1)  AT K=   1, I=   1, J=  31
     1 CALLS TO GCG PACKAGE FOR TRANSPORT TIME STEP   2 IN FLOW TIME STEP 714 STRESS PERIOD   1
     6 TOTAL ITERATIONS
 
 SOLVING FOR HEAD 
 FLOW MODEL IS TRANSIENT
 FLOW MODEL CONTAINS CONSTANT-HEAD CELLS


 MAXIMUM STEPSIZE DURING WHICH ANY PARTICLE CANNOT MOVE MORE THAN ONE CELL
 =  5.781    (WHEN MIN. R.F.=1)  AT K=  28, I=   1, J=  52

 MAXIMUM STEPSIZE WHICH MEETS STABILITY CRITERION OF THE ADVECTION TERM
 (FOR PURE FINITE-DIFFERENCE OPTION, MIXELM=0) 
 =  3.773    (WHEN MIN. R.F.=1)  AT K=   2, I=   1, J=  78


 TOTAL NUMBER OF POINT SOURCES/SINKS PRESENT IN THE FLOW MODEL =    62

 MAXIMUM STEPSIZE WHICH MEETS STABILITY CRITERION OF THE SINK & SOURCE TERM
 =  168.7    (WHEN MIN. R.F.=1)  AT K=   2, I=   1, J=   1

 MAXIMUM STEPSIZE WHICH MEETS STABILITY CRITERION OF THE DISPERSION TERM
 =  20.29    (WHEN MIN. R.F.=1)  AT K=   1, I=   1, J=  31
     1 CALLS TO GCG PACKAGE FOR TRANSPORT TIME STEP   3 IN FLOW TIME STEP 714 STRESS PERIOD   1
     6 TOTAL ITERATIONS
 
 SOLVING FOR HEAD 
 FLOW MODEL IS TRANSIENT
 FLOW MODEL CONTAINS CONSTANT-HEAD CELLS


 MAXIMUM STEPSIZE DURING WHICH ANY PARTICLE CANNOT MOVE MORE THAN ONE CELL
 =  5.779    (WHEN MIN. R.F.=1)  AT K=  28, I=   1, J=  52

 MAXIMUM STEPSIZE WHICH MEETS STABILITY CRITERION OF THE ADVECTION TERM
 (FOR PURE FINITE-DIFFERENCE OPTION, MIXELM=0) 
 =  4.039    (WHEN MIN. R.F.=1)  AT K=   2, I=   1, J=  78


 TOTAL NUMBER OF POINT SOURCES/SINKS PRESENT IN THE FLOW MODEL =    62

 MAXIMUM STEPSIZE WHICH MEETS STABILITY CRITERION OF THE SINK & SOURCE TERM
 =  167.7    (WHEN MIN. R.F.=1)  AT K=   2, I=   1, J=   1

 MAXIMUM STEPSIZE WHICH MEETS STABILITY CRITERION OF THE DISPERSION TERM
 =  20.29    (WHEN MIN. R.F.=1)  AT K=   1, I=   1, J=  31
     1 CALLS TO GCG PACKAGE FOR TRANSPORT TIME STEP   4 IN FLOW TIME STEP 714 STRESS PERIOD   1
     5 TOTAL ITERATIONS
  MAXIMUM CONCENTRATION CHANGES FOR EACH ITERATION:
  MAX. CHANGE LAYER,ROW,COL MAX. CHANGE LAYER,ROW,COL MAX. CHANGE LAYER,ROW,COL MAX. CHANGE LAYER,ROW,COL MAX. CHANGE LAYER,ROW,COL
 ------------------------------------------------------------------------------------------------------------------------------------
   0.2090E-01 (  2,  1, 79)  0.6051E-03 (  2,  1, 77)  0.2075E-04 (  3,  1, 77)  0.6619E-06 (  3,  1, 80)  0.2257E-07 (  5,  1, 80)


                                          ================================================
                                                         FROM TIME =   7140.0     TO    7150.0    

 
 SOLVING FOR HEAD 
 FLOW MODEL IS TRANSIENT
 FLOW MODEL CONTAINS CONSTANT-HEAD CELLS


 MAXIMUM STEPSIZE DURING WHICH ANY PARTICLE CANNOT MOVE MORE THAN ONE CELL
 =  5.783    (WHEN MIN. R.F.=1)  AT K=  28, I=   1, J=  52

 MAXIMUM STEPSIZE WHICH MEETS STABILITY CRITERION OF THE ADVECTION TERM
 (FOR PURE FINITE-DIFFERENCE OPTION, MIXELM=0) 
 =  4.280    (WHEN MIN. R.F.=1)  AT K=  30, I=   1, J=  95


 TOTAL NUMBER OF POINT SOURCES/SINKS PRESENT IN THE FLOW MODEL =    62

 MAXIMUM STEPSIZE WHICH MEETS STABILITY CRITERION OF THE SINK & SOURCE TERM
 =  170.8    (WHEN MIN. R.F.=1)  AT K=   2, I=   1, J=   1

 MAXIMUM STEPSIZE WHICH MEETS STABILITY CRITERION OF THE DISPERSION TERM
 =  20.29    (WHEN MIN. R.F.=1)  AT K=   1, I=   1, J=  31


     1 CALLS TO GCG PACKAGE FOR TRANSPORT TIME STEP   1 IN FLOW TIME STEP 715 STRESS PERIOD   1
     6 TOTAL ITERATIONS

 NO OUTPUT CONTROL FOR STRESS PERIOD    1   TIME STEP 715
 
 SOLVING FOR HEAD 
 FLOW MODEL IS TRANSIENT
 FLOW MODEL CONTAINS CONSTANT-HEAD CELLS


 MAXIMUM STEPSIZE DURING WHICH ANY PARTICLE CANNOT MOVE MORE THAN ONE CELL
 =  5.780    (WHEN MIN. R.F.=1)  AT K=  28, I=   1, J=  52

 MAXIMUM STEPSIZE WHICH MEETS STABILITY CRITERION OF THE ADVECTION TERM
 (FOR PURE FINITE-DIFFERENCE OPTION, MIXELM=0) 
 =  4.012    (WHEN MIN. R.F.=1)  AT K=   2, I=   1, J=  77


 TOTAL NUMBER OF POINT SOURCES/SINKS PRESENT IN THE FLOW MODEL =    62

 MAXIMUM STEPSIZE WHICH MEETS STABILITY CRITERION OF THE SINK & SOURCE TERM
 =  167.8    (WHEN MIN. R.F.=1)  AT K=   2, I=   1, J=   1

 MAXIMUM STEPSIZE WHICH MEETS STABILITY CRITERION OF THE DISPERSION TERM
 =  20.29    (WHEN MIN. R.F.=1)  AT K=   1, I=   1, J=  31
     1 CALLS TO GCG PACKAGE FOR TRANSPORT TIME STEP   2 IN FLOW TIME STEP 715 STRESS PERIOD   1
     6 TOTAL ITERATIONS
 
 SOLVING FOR HEAD 
 FLOW MODEL IS TRANSIENT
 FLOW MODEL CONTAINS CONSTANT-HEAD CELLS


 MAXIMUM STEPSIZE DURING WHICH ANY PARTICLE CANNOT MOVE MORE THAN ONE CELL
 =  5.775    (WHEN MIN. R.F.=1)  AT K=  28, I=   1, J=  52

 MAXIMUM STEPSIZE WHICH MEETS STABILITY CRITERION OF THE ADVECTION TERM
 (FOR PURE FINITE-DIFFERENCE OPTION, MIXELM=0) 
 =  3.867    (WHEN MIN. R.F.=1)  AT K=   2, I=   1, J=  77


 TOTAL NUMBER OF POINT SOURCES/SINKS PRESENT IN THE FLOW MODEL =    62

 MAXIMUM STEPSIZE WHICH MEETS STABILITY CRITERION OF THE SINK & SOURCE TERM
 =  167.6    (WHEN MIN. R.F.=1)  AT K=   2, I=   1, J=   1

 MAXIMUM STEPSIZE WHICH MEETS STABILITY CRITERION OF THE DISPERSION TERM
 =  20.29    (WHEN MIN. R.F.=1)  AT K=   1, I=   1, J=  31
     1 CALLS TO GCG PACKAGE FOR TRANSPORT TIME STEP   3 IN FLOW TIME STEP 715 STRESS PERIOD   1
     6 TOTAL ITERATIONS
 
 SOLVING FOR HEAD 
 FLOW MODEL IS TRANSIENT
 FLOW MODEL CONTAINS CONSTANT-HEAD CELLS


 MAXIMUM STEPSIZE DURING WHICH ANY PARTICLE CANNOT MOVE MORE THAN ONE CELL
 =  5.772    (WHEN MIN. R.F.=1)  AT K=  28, I=   1, J=  52

 MAXIMUM STEPSIZE WHICH MEETS STABILITY CRITERION OF THE ADVECTION TERM
 (FOR PURE FINITE-DIFFERENCE OPTION, MIXELM=0) 
 =  3.871    (WHEN MIN. R.F.=1)  AT K=   2, I=   1, J=  77


 TOTAL NUMBER OF POINT SOURCES/SINKS PRESENT IN THE FLOW MODEL =    62

 MAXIMUM STEPSIZE WHICH MEETS STABILITY CRITERION OF THE SINK & SOURCE TERM
 =  165.6    (WHEN MIN. R.F.=1)  AT K=   2, I=   1, J=   1

 MAXIMUM STEPSIZE WHICH MEETS STABILITY CRITERION OF THE DISPERSION TERM
 =  20.29    (WHEN MIN. R.F.=1)  AT K=   1, I=   1, J=  31
     1 CALLS TO GCG PACKAGE FOR TRANSPORT TIME STEP   4 IN FLOW TIME STEP 715 STRESS PERIOD   1
     4 TOTAL ITERATIONS
  MAXIMUM CONCENTRATION CHANGES FOR EACH ITERATION:
  MAX. CHANGE LAYER,ROW,COL MAX. CHANGE LAYER,ROW,COL MAX. CHANGE LAYER,ROW,COL MAX. CHANGE LAYER,ROW,COL MAX. CHANGE LAYER,ROW,COL
 ------------------------------------------------------------------------------------------------------------------------------------
   0.8507E-02 (  2,  1, 78)  0.1101E-03 (  2,  1, 78)  0.1752E-05 (  2,  1, 79)  0.3113E-07 (  3,  1, 79)


                                          ================================================
                                                         FROM TIME =   7150.0     TO    7160.0    

 
 SOLVING FOR HEAD 
 FLOW MODEL IS TRANSIENT
 FLOW MODEL CONTAINS CONSTANT-HEAD CELLS


 MAXIMUM STEPSIZE DURING WHICH ANY PARTICLE CANNOT MOVE MORE THAN ONE CELL
 =  5.776    (WHEN MIN. R.F.=1)  AT K=  28, I=   1, J=  52

 MAXIMUM STEPSIZE WHICH MEETS STABILITY CRITERION OF THE ADVECTION TERM
 (FOR PURE FINITE-DIFFERENCE OPTION, MIXELM=0) 
 =  3.897    (WHEN MIN. R.F.=1)  AT K=   2, I=   1, J=  77


 TOTAL NUMBER OF POINT SOURCES/SINKS PRESENT IN THE FLOW MODEL =    62

 MAXIMUM STEPSIZE WHICH MEETS STABILITY CRITERION OF THE SINK & SOURCE TERM
 =  169.4    (WHEN MIN. R.F.=1)  AT K=   2, I=   1, J=   1

 MAXIMUM STEPSIZE WHICH MEETS STABILITY CRITERION OF THE DISPERSION TERM
 =  20.29    (WHEN MIN. R.F.=1)  AT K=   1, I=   1, J=  31


     1 CALLS TO GCG PACKAGE FOR TRANSPORT TIME STEP   1 IN FLOW TIME STEP 716 STRESS PERIOD   1
     6 TOTAL ITERATIONS

 NO OUTPUT CONTROL FOR STRESS PERIOD    1   TIME STEP 716
 
 SOLVING FOR HEAD 
 FLOW MODEL IS TRANSIENT
 FLOW MODEL CONTAINS CONSTANT-HEAD CELLS


 MAXIMUM STEPSIZE DURING WHICH ANY PARTICLE CANNOT MOVE MORE THAN ONE CELL
 =  5.777    (WHEN MIN. R.F.=1)  AT K=  28, I=   1, J=  52

 MAXIMUM STEPSIZE WHICH MEETS STABILITY CRITERION OF THE ADVECTION TERM
 (FOR PURE FINITE-DIFFERENCE OPTION, MIXELM=0) 
 =  4.045    (WHEN MIN. R.F.=1)  AT K=   2, I=   1, J=  77


 TOTAL NUMBER OF POINT SOURCES/SINKS PRESENT IN THE FLOW MODEL =    62

 MAXIMUM STEPSIZE WHICH MEETS STABILITY CRITERION OF THE SINK & SOURCE TERM
 =  163.0    (WHEN MIN. R.F.=1)  AT K=   2, I=   1, J=   1

 MAXIMUM STEPSIZE WHICH MEETS STABILITY CRITERION OF THE DISPERSION TERM
 =  20.29    (WHEN MIN. R.F.=1)  AT K=   1, I=   1, J=  31
     1 CALLS TO GCG PACKAGE FOR TRANSPORT TIME STEP   2 IN FLOW TIME STEP 716 STRESS PERIOD   1
     6 TOTAL ITERATIONS
 
 SOLVING FOR HEAD 
 FLOW MODEL IS TRANSIENT
 FLOW MODEL CONTAINS CONSTANT-HEAD CELLS


 MAXIMUM STEPSIZE DURING WHICH ANY PARTICLE CANNOT MOVE MORE THAN ONE CELL
 =  5.778    (WHEN MIN. R.F.=1)  AT K=  28, I=   1, J=  52

 MAXIMUM STEPSIZE WHICH MEETS STABILITY CRITERION OF THE ADVECTION TERM
 (FOR PURE FINITE-DIFFERENCE OPTION, MIXELM=0) 
 =  4.316    (WHEN MIN. R.F.=1)  AT K=  30, I=   1, J=  25


 TOTAL NUMBER OF POINT SOURCES/SINKS PRESENT IN THE FLOW MODEL =    62

 MAXIMUM STEPSIZE WHICH MEETS STABILITY CRITERION OF THE SINK & SOURCE TERM
 =  161.5    (WHEN MIN. R.F.=1)  AT K=   2, I=   1, J=   1

 MAXIMUM STEPSIZE WHICH MEETS STABILITY CRITERION OF THE DISPERSION TERM
 =  20.29    (WHEN MIN. R.F.=1)  AT K=   1, I=   1, J=  31
     1 CALLS TO GCG PACKAGE FOR TRANSPORT TIME STEP   3 IN FLOW TIME STEP 716 STRESS PERIOD   1
     6 TOTAL ITERATIONS
 
 SOLVING FOR HEAD 
 FLOW MODEL IS TRANSIENT
 FLOW MODEL CONTAINS CONSTANT-HEAD CELLS


 MAXIMUM STEPSIZE DURING WHICH ANY PARTICLE CANNOT MOVE MORE THAN ONE CELL
 =  5.778    (WHEN MIN. R.F.=1)  AT K=  28, I=   1, J=  52

 MAXIMUM STEPSIZE WHICH MEETS STABILITY CRITERION OF THE ADVECTION TERM
 (FOR PURE FINITE-DIFFERENCE OPTION, MIXELM=0) 
 =  4.313    (WHEN MIN. R.F.=1)  AT K=  30, I=   1, J=  96


 TOTAL NUMBER OF POINT SOURCES/SINKS PRESENT IN THE FLOW MODEL =    62

 MAXIMUM STEPSIZE WHICH MEETS STABILITY CRITERION OF THE SINK & SOURCE TERM
 =  160.2    (WHEN MIN. R.F.=1)  AT K=   2, I=   1, J=   1

 MAXIMUM STEPSIZE WHICH MEETS STABILITY CRITERION OF THE DISPERSION TERM
 =  20.29    (WHEN MIN. R.F.=1)  AT K=   1, I=   1, J=  31
     1 CALLS TO GCG PACKAGE FOR TRANSPORT TIME STEP   4 IN FLOW TIME STEP 716 STRESS PERIOD   1
     5 TOTAL ITERATIONS
  MAXIMUM CONCENTRATION CHANGES FOR EACH ITERATION:
  MAX. CHANGE LAYER,ROW,COL MAX. CHANGE LAYER,ROW,COL MAX. CHANGE LAYER,ROW,COL MAX. CHANGE LAYER,ROW,COL MAX. CHANGE LAYER,ROW,COL
 ------------------------------------------------------------------------------------------------------------------------------------
   0.1297E-01 (  2,  1, 38)  0.2494E-03 (  2,  1, 76)  0.4596E-05 (  2,  1, 76)  0.1315E-06 (  3,  1, 75)  0.3405E-08 (  4,  1, 75)


                                          ================================================
                                                         FROM TIME =   7160.0     TO    7170.0    

 
 SOLVING FOR HEAD 
 FLOW MODEL IS TRANSIENT
 FLOW MODEL CONTAINS CONSTANT-HEAD CELLS


 MAXIMUM STEPSIZE DURING WHICH ANY PARTICLE CANNOT MOVE MORE THAN ONE CELL
 =  5.692    (WHEN MIN. R.F.=1)  AT K=   4, I=   1, J=  47

 MAXIMUM STEPSIZE WHICH MEETS STABILITY CRITERION OF THE ADVECTION TERM
 (FOR PURE FINITE-DIFFERENCE OPTION, MIXELM=0) 
 =  4.343    (WHEN MIN. R.F.=1)  AT K=  30, I=   1, J=  96


 TOTAL NUMBER OF POINT SOURCES/SINKS PRESENT IN THE FLOW MODEL =    62

 MAXIMUM STEPSIZE WHICH MEETS STABILITY CRITERION OF THE SINK & SOURCE TERM
 =  166.7    (WHEN MIN. R.F.=1)  AT K=   2, I=   1, J=   1

 MAXIMUM STEPSIZE WHICH MEETS STABILITY CRITERION OF THE DISPERSION TERM
 =  20.29    (WHEN MIN. R.F.=1)  AT K=   1, I=   1, J=  31


     1 CALLS TO GCG PACKAGE FOR TRANSPORT TIME STEP   1 IN FLOW TIME STEP 717 STRESS PERIOD   1
     6 TOTAL ITERATIONS

 NO OUTPUT CONTROL FOR STRESS PERIOD    1   TIME STEP 717
 
 SOLVING FOR HEAD 
 FLOW MODEL IS TRANSIENT
 FLOW MODEL CONTAINS CONSTANT-HEAD CELLS


 MAXIMUM STEPSIZE DURING WHICH ANY PARTICLE CANNOT MOVE MORE THAN ONE CELL
 =  5.390    (WHEN MIN. R.F.=1)  AT K=   4, I=   1, J=  47

 MAXIMUM STEPSIZE WHICH MEETS STABILITY CRITERION OF THE ADVECTION TERM
 (FOR PURE FINITE-DIFFERENCE OPTION, MIXELM=0) 
 =  4.183    (WHEN MIN. R.F.=1)  AT K=   2, I=   1, J=  40


 TOTAL NUMBER OF POINT SOURCES/SINKS PRESENT IN THE FLOW MODEL =    62

 MAXIMUM STEPSIZE WHICH MEETS STABILITY CRITERION OF THE SINK & SOURCE TERM
 =  160.8    (WHEN MIN. R.F.=1)  AT K=   2, I=   1, J=   1

 MAXIMUM STEPSIZE WHICH MEETS STABILITY CRITERION OF THE DISPERSION TERM
 =  20.29    (WHEN MIN. R.F.=1)  AT K=   1, I=   1, J=  31
     1 CALLS TO GCG PACKAGE FOR TRANSPORT TIME STEP   2 IN FLOW TIME STEP 717 STRESS PERIOD   1
     6 TOTAL ITERATIONS
 
 SOLVING FOR HEAD 
 FLOW MODEL IS TRANSIENT
 FLOW MODEL CONTAINS CONSTANT-HEAD CELLS


 MAXIMUM STEPSIZE DURING WHICH ANY PARTICLE CANNOT MOVE MORE THAN ONE CELL
 =  5.181    (WHEN MIN. R.F.=1)  AT K=   4, I=   1, J=  47

 MAXIMUM STEPSIZE WHICH MEETS STABILITY CRITERION OF THE ADVECTION TERM
 (FOR PURE FINITE-DIFFERENCE OPTION, MIXELM=0) 
 =  4.044    (WHEN MIN. R.F.=1)  AT K=   2, I=   1, J=  40


 TOTAL NUMBER OF POINT SOURCES/SINKS PRESENT IN THE FLOW MODEL =    62

 MAXIMUM STEPSIZE WHICH MEETS STABILITY CRITERION OF THE SINK & SOURCE TERM
 =  159.5    (WHEN MIN. R.F.=1)  AT K=   2, I=   1, J=   1

 MAXIMUM STEPSIZE WHICH MEETS STABILITY CRITERION OF THE DISPERSION TERM
 =  20.29    (WHEN MIN. R.F.=1)  AT K=   1, I=   1, J=  31
     1 CALLS TO GCG PACKAGE FOR TRANSPORT TIME STEP   3 IN FLOW TIME STEP 717 STRESS PERIOD   1
     6 TOTAL ITERATIONS
 
 SOLVING FOR HEAD 
 FLOW MODEL IS TRANSIENT
 FLOW MODEL CONTAINS CONSTANT-HEAD CELLS


 MAXIMUM STEPSIZE DURING WHICH ANY PARTICLE CANNOT MOVE MORE THAN ONE CELL
 =  5.061    (WHEN MIN. R.F.=1)  AT K=   4, I=   1, J=  47

 MAXIMUM STEPSIZE WHICH MEETS STABILITY CRITERION OF THE ADVECTION TERM
 (FOR PURE FINITE-DIFFERENCE OPTION, MIXELM=0) 
 =  4.154    (WHEN MIN. R.F.=1)  AT K=   2, I=   1, J=  40


 TOTAL NUMBER OF POINT SOURCES/SINKS PRESENT IN THE FLOW MODEL =    62

 MAXIMUM STEPSIZE WHICH MEETS STABILITY CRITERION OF THE SINK & SOURCE TERM
 =  157.8    (WHEN MIN. R.F.=1)  AT K=   2, I=   1, J=   1

 MAXIMUM STEPSIZE WHICH MEETS STABILITY CRITERION OF THE DISPERSION TERM
 =  20.29    (WHEN MIN. R.F.=1)  AT K=   1, I=   1, J=  31
     1 CALLS TO GCG PACKAGE FOR TRANSPORT TIME STEP   4 IN FLOW TIME STEP 717 STRESS PERIOD   1
     4 TOTAL ITERATIONS
  MAXIMUM CONCENTRATION CHANGES FOR EACH ITERATION:
  MAX. CHANGE LAYER,ROW,COL MAX. CHANGE LAYER,ROW,COL MAX. CHANGE LAYER,ROW,COL MAX. CHANGE LAYER,ROW,COL MAX. CHANGE LAYER,ROW,COL
 ------------------------------------------------------------------------------------------------------------------------------------
   0.4379E-02 (  2,  1, 77)  0.2544E-04 (  2,  1, 77)  0.2327E-06 (  2,  1, 78)  0.2324E-08 (  3,  1, 78)


                                          ================================================
                                                         FROM TIME =   7170.0     TO    7180.0    

 
 SOLVING FOR HEAD 
 FLOW MODEL IS TRANSIENT
 FLOW MODEL CONTAINS CONSTANT-HEAD CELLS


 MAXIMUM STEPSIZE DURING WHICH ANY PARTICLE CANNOT MOVE MORE THAN ONE CELL
 =  5.053    (WHEN MIN. R.F.=1)  AT K=   4, I=   1, J=  47

 MAXIMUM STEPSIZE WHICH MEETS STABILITY CRITERION OF THE ADVECTION TERM
 (FOR PURE FINITE-DIFFERENCE OPTION, MIXELM=0) 
 =  4.189    (WHEN MIN. R.F.=1)  AT K=   2, I=   1, J=  40


 TOTAL NUMBER OF POINT SOURCES/SINKS PRESENT IN THE FLOW MODEL =    62

 MAXIMUM STEPSIZE WHICH MEETS STABILITY CRITERION OF THE SINK & SOURCE TERM
 =  159.4    (WHEN MIN. R.F.=1)  AT K=   2, I=   1, J=   1

 MAXIMUM STEPSIZE WHICH MEETS STABILITY CRITERION OF THE DISPERSION TERM
 =  20.29    (WHEN MIN. R.F.=1)  AT K=   1, I=   1, J=  31


     1 CALLS TO GCG PACKAGE FOR TRANSPORT TIME STEP   1 IN FLOW TIME STEP 718 STRESS PERIOD   1
     6 TOTAL ITERATIONS

 NO OUTPUT CONTROL FOR STRESS PERIOD    1   TIME STEP 718
 
 SOLVING FOR HEAD 
 FLOW MODEL IS TRANSIENT
 FLOW MODEL CONTAINS CONSTANT-HEAD CELLS


 MAXIMUM STEPSIZE DURING WHICH ANY PARTICLE CANNOT MOVE MORE THAN ONE CELL
 =  5.018    (WHEN MIN. R.F.=1)  AT K=   4, I=   1, J=  47

 MAXIMUM STEPSIZE WHICH MEETS STABILITY CRITERION OF THE ADVECTION TERM
 (FOR PURE FINITE-DIFFERENCE OPTION, MIXELM=0) 
 =  4.063    (WHEN MIN. R.F.=1)  AT K=   2, I=   1, J=  41


 TOTAL NUMBER OF POINT SOURCES/SINKS PRESENT IN THE FLOW MODEL =    62

 MAXIMUM STEPSIZE WHICH MEETS STABILITY CRITERION OF THE SINK & SOURCE TERM
 =  153.5    (WHEN MIN. R.F.=1)  AT K=   2, I=   1, J=   1

 MAXIMUM STEPSIZE WHICH MEETS STABILITY CRITERION OF THE DISPERSION TERM
 =  20.29    (WHEN MIN. R.F.=1)  AT K=   1, I=   1, J=  31
     1 CALLS TO GCG PACKAGE FOR TRANSPORT TIME STEP   2 IN FLOW TIME STEP 718 STRESS PERIOD   1
     6 TOTAL ITERATIONS
 
 SOLVING FOR HEAD 
 FLOW MODEL IS TRANSIENT
 FLOW MODEL CONTAINS CONSTANT-HEAD CELLS


 MAXIMUM STEPSIZE DURING WHICH ANY PARTICLE CANNOT MOVE MORE THAN ONE CELL
 =  5.045    (WHEN MIN. R.F.=1)  AT K=   4, I=   1, J=  47

 MAXIMUM STEPSIZE WHICH MEETS STABILITY CRITERION OF THE ADVECTION TERM
 (FOR PURE FINITE-DIFFERENCE OPTION, MIXELM=0) 
 =  3.836    (WHEN MIN. R.F.=1)  AT K=   2, I=   1, J=  41


 TOTAL NUMBER OF POINT SOURCES/SINKS PRESENT IN THE FLOW MODEL =    62

 MAXIMUM STEPSIZE WHICH MEETS STABILITY CRITERION OF THE SINK & SOURCE TERM
 =  154.6    (WHEN MIN. R.F.=1)  AT K=   2, I=   1, J=   1

 MAXIMUM STEPSIZE WHICH MEETS STABILITY CRITERION OF THE DISPERSION TERM
 =  20.29    (WHEN MIN. R.F.=1)  AT K=   1, I=   1, J=  31
     1 CALLS TO GCG PACKAGE FOR TRANSPORT TIME STEP   3 IN FLOW TIME STEP 718 STRESS PERIOD   1
     6 TOTAL ITERATIONS
 
 SOLVING FOR HEAD 
 FLOW MODEL IS TRANSIENT
 FLOW MODEL CONTAINS CONSTANT-HEAD CELLS


 MAXIMUM STEPSIZE DURING WHICH ANY PARTICLE CANNOT MOVE MORE THAN ONE CELL
 =  5.121    (WHEN MIN. R.F.=1)  AT K=   5, I=   1, J=  47

 MAXIMUM STEPSIZE WHICH MEETS STABILITY CRITERION OF THE ADVECTION TERM
 (FOR PURE FINITE-DIFFERENCE OPTION, MIXELM=0) 
 =  3.798    (WHEN MIN. R.F.=1)  AT K=   2, I=   1, J=  41


 TOTAL NUMBER OF POINT SOURCES/SINKS PRESENT IN THE FLOW MODEL =    62

 MAXIMUM STEPSIZE WHICH MEETS STABILITY CRITERION OF THE SINK & SOURCE TERM
 =  155.6    (WHEN MIN. R.F.=1)  AT K=   2, I=   1, J=   1

 MAXIMUM STEPSIZE WHICH MEETS STABILITY CRITERION OF THE DISPERSION TERM
 =  20.29    (WHEN MIN. R.F.=1)  AT K=   1, I=   1, J=  31
     1 CALLS TO GCG PACKAGE FOR TRANSPORT TIME STEP   4 IN FLOW TIME STEP 718 STRESS PERIOD   1
     4 TOTAL ITERATIONS
  MAXIMUM CONCENTRATION CHANGES FOR EACH ITERATION:
  MAX. CHANGE LAYER,ROW,COL MAX. CHANGE LAYER,ROW,COL MAX. CHANGE LAYER,ROW,COL MAX. CHANGE LAYER,ROW,COL MAX. CHANGE LAYER,ROW,COL
 ------------------------------------------------------------------------------------------------------------------------------------
   0.8536E-02 (  2,  1, 83)  0.9997E-04 (  2,  1, 83)  0.1306E-05 (  3,  1, 42)  0.2169E-07 (  3,  1, 84)


                                          ================================================
                                                         FROM TIME =   7180.0     TO    7190.0    

 
 SOLVING FOR HEAD 
 FLOW MODEL IS TRANSIENT
 FLOW MODEL CONTAINS CONSTANT-HEAD CELLS


 MAXIMUM STEPSIZE DURING WHICH ANY PARTICLE CANNOT MOVE MORE THAN ONE CELL
 =  5.132    (WHEN MIN. R.F.=1)  AT K=   5, I=   1, J=  47

 MAXIMUM STEPSIZE WHICH MEETS STABILITY CRITERION OF THE ADVECTION TERM
 (FOR PURE FINITE-DIFFERENCE OPTION, MIXELM=0) 
 =  3.811    (WHEN MIN. R.F.=1)  AT K=   2, I=   1, J=  41


 TOTAL NUMBER OF POINT SOURCES/SINKS PRESENT IN THE FLOW MODEL =    62

 MAXIMUM STEPSIZE WHICH MEETS STABILITY CRITERION OF THE SINK & SOURCE TERM
 =  164.2    (WHEN MIN. R.F.=1)  AT K=   2, I=   1, J=   1

 MAXIMUM STEPSIZE WHICH MEETS STABILITY CRITERION OF THE DISPERSION TERM
 =  20.29    (WHEN MIN. R.F.=1)  AT K=   1, I=   1, J=  31


     1 CALLS TO GCG PACKAGE FOR TRANSPORT TIME STEP   1 IN FLOW TIME STEP 719 STRESS PERIOD   1
     6 TOTAL ITERATIONS

 NO OUTPUT CONTROL FOR STRESS PERIOD    1   TIME STEP 719
 
 SOLVING FOR HEAD 
 FLOW MODEL IS TRANSIENT
 FLOW MODEL CONTAINS CONSTANT-HEAD CELLS


 MAXIMUM STEPSIZE DURING WHICH ANY PARTICLE CANNOT MOVE MORE THAN ONE CELL
 =  5.196    (WHEN MIN. R.F.=1)  AT K=   5, I=   1, J=  47

 MAXIMUM STEPSIZE WHICH MEETS STABILITY CRITERION OF THE ADVECTION TERM
 (FOR PURE FINITE-DIFFERENCE OPTION, MIXELM=0) 
 =  3.968    (WHEN MIN. R.F.=1)  AT K=   2, I=   1, J=  41


 TOTAL NUMBER OF POINT SOURCES/SINKS PRESENT IN THE FLOW MODEL =    62

 MAXIMUM STEPSIZE WHICH MEETS STABILITY CRITERION OF THE SINK & SOURCE TERM
 =  157.2    (WHEN MIN. R.F.=1)  AT K=   2, I=   1, J=   1

 MAXIMUM STEPSIZE WHICH MEETS STABILITY CRITERION OF THE DISPERSION TERM
 =  20.29    (WHEN MIN. R.F.=1)  AT K=   1, I=   1, J=  31
     1 CALLS TO GCG PACKAGE FOR TRANSPORT TIME STEP   2 IN FLOW TIME STEP 719 STRESS PERIOD   1
     6 TOTAL ITERATIONS
 
 SOLVING FOR HEAD 
 FLOW MODEL IS TRANSIENT
 FLOW MODEL CONTAINS CONSTANT-HEAD CELLS


 MAXIMUM STEPSIZE DURING WHICH ANY PARTICLE CANNOT MOVE MORE THAN ONE CELL
 =  5.294    (WHEN MIN. R.F.=1)  AT K=   5, I=   1, J=  47

 MAXIMUM STEPSIZE WHICH MEETS STABILITY CRITERION OF THE ADVECTION TERM
 (FOR PURE FINITE-DIFFERENCE OPTION, MIXELM=0) 
 =  3.989    (WHEN MIN. R.F.=1)  AT K=   2, I=   1, J=  42


 TOTAL NUMBER OF POINT SOURCES/SINKS PRESENT IN THE FLOW MODEL =    62

 MAXIMUM STEPSIZE WHICH MEETS STABILITY CRITERION OF THE SINK & SOURCE TERM
 =  157.0    (WHEN MIN. R.F.=1)  AT K=   2, I=   1, J=   1

 MAXIMUM STEPSIZE WHICH MEETS STABILITY CRITERION OF THE DISPERSION TERM
 =  20.29    (WHEN MIN. R.F.=1)  AT K=   1, I=   1, J=  31
     1 CALLS TO GCG PACKAGE FOR TRANSPORT TIME STEP   3 IN FLOW TIME STEP 719 STRESS PERIOD   1
     6 TOTAL ITERATIONS
 
 SOLVING FOR HEAD 
 FLOW MODEL IS TRANSIENT
 FLOW MODEL CONTAINS CONSTANT-HEAD CELLS


 MAXIMUM STEPSIZE DURING WHICH ANY PARTICLE CANNOT MOVE MORE THAN ONE CELL
 =  5.257    (WHEN MIN. R.F.=1)  AT K=   4, I=   1, J=  74

 MAXIMUM STEPSIZE WHICH MEETS STABILITY CRITERION OF THE ADVECTION TERM
 (FOR PURE FINITE-DIFFERENCE OPTION, MIXELM=0) 
 =  3.781    (WHEN MIN. R.F.=1)  AT K=   2, I=   1, J=  42


 TOTAL NUMBER OF POINT SOURCES/SINKS PRESENT IN THE FLOW MODEL =    62

 MAXIMUM STEPSIZE WHICH MEETS STABILITY CRITERION OF THE SINK & SOURCE TERM
 =  156.7    (WHEN MIN. R.F.=1)  AT K=   2, I=   1, J=   1

 MAXIMUM STEPSIZE WHICH MEETS STABILITY CRITERION OF THE DISPERSION TERM
 =  20.29    (WHEN MIN. R.F.=1)  AT K=   1, I=   1, J=  31
     1 CALLS TO GCG PACKAGE FOR TRANSPORT TIME STEP   4 IN FLOW TIME STEP 719 STRESS PERIOD   1
     5 TOTAL ITERATIONS
  MAXIMUM CONCENTRATION CHANGES FOR EACH ITERATION:
  MAX. CHANGE LAYER,ROW,COL MAX. CHANGE LAYER,ROW,COL MAX. CHANGE LAYER,ROW,COL MAX. CHANGE LAYER,ROW,COL MAX. CHANGE LAYER,ROW,COL
 ------------------------------------------------------------------------------------------------------------------------------------
   0.1520E-01 (  2,  1, 82)  0.3524E-03 (  2,  1, 82)  0.9247E-05 (  2,  1, 83)  0.3892E-06 (  3,  1, 45)  0.9419E-08 (  4,  1, 45)


                                          ================================================
                                                         FROM TIME =   7190.0     TO    7200.0    

 
 SOLVING FOR HEAD 
 FLOW MODEL IS TRANSIENT
 FLOW MODEL CONTAINS CONSTANT-HEAD CELLS


 MAXIMUM STEPSIZE DURING WHICH ANY PARTICLE CANNOT MOVE MORE THAN ONE CELL
 =  5.190    (WHEN MIN. R.F.=1)  AT K=   4, I=   1, J=  74

 MAXIMUM STEPSIZE WHICH MEETS STABILITY CRITERION OF THE ADVECTION TERM
 (FOR PURE FINITE-DIFFERENCE OPTION, MIXELM=0) 
 =  3.750    (WHEN MIN. R.F.=1)  AT K=   2, I=   1, J=  42


 TOTAL NUMBER OF POINT SOURCES/SINKS PRESENT IN THE FLOW MODEL =    62

 MAXIMUM STEPSIZE WHICH MEETS STABILITY CRITERION OF THE SINK & SOURCE TERM
 =  162.4    (WHEN MIN. R.F.=1)  AT K=   2, I=   1, J=   1

 MAXIMUM STEPSIZE WHICH MEETS STABILITY CRITERION OF THE DISPERSION TERM
 =  20.29    (WHEN MIN. R.F.=1)  AT K=   1, I=   1, J=  31


     1 CALLS TO GCG PACKAGE FOR TRANSPORT TIME STEP   1 IN FLOW TIME STEP 720 STRESS PERIOD   1
     6 TOTAL ITERATIONS

 NO OUTPUT CONTROL FOR STRESS PERIOD    1   TIME STEP 720
 
 SOLVING FOR HEAD 
 FLOW MODEL IS TRANSIENT
 FLOW MODEL CONTAINS CONSTANT-HEAD CELLS


 MAXIMUM STEPSIZE DURING WHICH ANY PARTICLE CANNOT MOVE MORE THAN ONE CELL
 =  5.078    (WHEN MIN. R.F.=1)  AT K=   4, I=   1, J=  74

 MAXIMUM STEPSIZE WHICH MEETS STABILITY CRITERION OF THE ADVECTION TERM
 (FOR PURE FINITE-DIFFERENCE OPTION, MIXELM=0) 
 =  3.765    (WHEN MIN. R.F.=1)  AT K=   2, I=   1, J=  42


 TOTAL NUMBER OF POINT SOURCES/SINKS PRESENT IN THE FLOW MODEL =    62

 MAXIMUM STEPSIZE WHICH MEETS STABILITY CRITERION OF THE SINK & SOURCE TERM
 =  159.4    (WHEN MIN. R.F.=1)  AT K=   2, I=   1, J=   1

 MAXIMUM STEPSIZE WHICH MEETS STABILITY CRITERION OF THE DISPERSION TERM
 =  20.29    (WHEN MIN. R.F.=1)  AT K=   1, I=   1, J=  31
     1 CALLS TO GCG PACKAGE FOR TRANSPORT TIME STEP   2 IN FLOW TIME STEP 720 STRESS PERIOD   1
     6 TOTAL ITERATIONS
 
 SOLVING FOR HEAD 
 FLOW MODEL IS TRANSIENT
 FLOW MODEL CONTAINS CONSTANT-HEAD CELLS


 MAXIMUM STEPSIZE DURING WHICH ANY PARTICLE CANNOT MOVE MORE THAN ONE CELL
 =  5.005    (WHEN MIN. R.F.=1)  AT K=   4, I=   1, J=  74

 MAXIMUM STEPSIZE WHICH MEETS STABILITY CRITERION OF THE ADVECTION TERM
 (FOR PURE FINITE-DIFFERENCE OPTION, MIXELM=0) 
 =  3.900    (WHEN MIN. R.F.=1)  AT K=   2, I=   1, J=  42


 TOTAL NUMBER OF POINT SOURCES/SINKS PRESENT IN THE FLOW MODEL =    62

 MAXIMUM STEPSIZE WHICH MEETS STABILITY CRITERION OF THE SINK & SOURCE TERM
 =  161.4    (WHEN MIN. R.F.=1)  AT K=   2, I=   1, J=   1

 MAXIMUM STEPSIZE WHICH MEETS STABILITY CRITERION OF THE DISPERSION TERM
 =  20.29    (WHEN MIN. R.F.=1)  AT K=   1, I=   1, J=  31
     1 CALLS TO GCG PACKAGE FOR TRANSPORT TIME STEP   3 IN FLOW TIME STEP 720 STRESS PERIOD   1
     6 TOTAL ITERATIONS
 
 SOLVING FOR HEAD 
 FLOW MODEL IS TRANSIENT
 FLOW MODEL CONTAINS CONSTANT-HEAD CELLS


 MAXIMUM STEPSIZE DURING WHICH ANY PARTICLE CANNOT MOVE MORE THAN ONE CELL
 =  4.972    (WHEN MIN. R.F.=1)  AT K=   4, I=   1, J=  74

 MAXIMUM STEPSIZE WHICH MEETS STABILITY CRITERION OF THE ADVECTION TERM
 (FOR PURE FINITE-DIFFERENCE OPTION, MIXELM=0) 
 =  3.673    (WHEN MIN. R.F.=1)  AT K=   2, I=   1, J=  80


 TOTAL NUMBER OF POINT SOURCES/SINKS PRESENT IN THE FLOW MODEL =    62

 MAXIMUM STEPSIZE WHICH MEETS STABILITY CRITERION OF THE SINK & SOURCE TERM
 =  160.3    (WHEN MIN. R.F.=1)  AT K=   2, I=   1, J=   1

 MAXIMUM STEPSIZE WHICH MEETS STABILITY CRITERION OF THE DISPERSION TERM
 =  20.29    (WHEN MIN. R.F.=1)  AT K=   1, I=   1, J=  31
     1 CALLS TO GCG PACKAGE FOR TRANSPORT TIME STEP   4 IN FLOW TIME STEP 720 STRESS PERIOD   1
     5 TOTAL ITERATIONS
  MAXIMUM CONCENTRATION CHANGES FOR EACH ITERATION:
  MAX. CHANGE LAYER,ROW,COL MAX. CHANGE LAYER,ROW,COL MAX. CHANGE LAYER,ROW,COL MAX. CHANGE LAYER,ROW,COL MAX. CHANGE LAYER,ROW,COL
 ------------------------------------------------------------------------------------------------------------------------------------
   0.1687E-01 (  2,  1, 41)  0.3884E-03 (  2,  1, 81)  0.1231E-04 (  3,  1, 79)  0.5908E-06 (  3,  1, 77)  0.1673E-07 (  4,  1, 77)



 >>>>>>>>>>>>>>>>>>>>>>>>>>>>>>>>>>>>>>>>>>>>>>>>>>>>>>>FOR COMPONENT NO. 01<<<<<<<<<<<<<<<<<<<<<<<<<<<<<<<<<<<<<<<<<<<<<<<<<<<<<<<


                                            -------------------------------------------
                                                      TRANSPORT STEP NO.    4
                                            -------------------------------------------

 TOTAL ELAPSED TIME SINCE BEGINNING OF SIMULATION =   7200.000    D   
 .....................................................................

                     CUMULATIVE MASS BUDGETS AT END OF TRANSPORT STEP    4, TIME STEP  720, STRESS PERIOD    1
                     ------------------------------------------------------------------------------------------

                                                             IN                           OUT
                                                      ----------------             ----------------
                               CONSTANT CONCENTRATION:    4071526.                   -3147363.    
                                        CONSTANT HEAD:    0.000000                   -1459.163    
                               MASS STOR (FLOW MODEL):    485.3377                   -680.9983    
                                MASS STORAGE (SOLUTE):    7370271.                   -8292779.    
                            ---------------------------------------------------------------------------
                                              [TOTAL]:   0.1144228E+08 KG           -0.1144228E+08 KG  

                                                          NET (IN - OUT):  -0.2535849E-01
                                                   DISCREPANCY (PERCENT):  -0.2216209E-06
1
  MASS BUDGET FOR ENTIRE MODEL AT END OF TIME STEP720 IN STRESS PERIOD   1
  ------------------------------------------------------------------------------

     CUMULATIVE MASS      M       RATES FOR THIS TIME STEP      M/T
     ------------------                 ------------------------

           IN:                                      IN:
           ---                                      ---
             STORAGE =       96153.1684               STORAGE =           0.9490
       CONSTANT HEAD =      219215.4215         CONSTANT HEAD =          24.8879
                DCDT =      741079.7941                  DCDT =         102.0163

            TOTAL IN =     1056448.3840              TOTAL IN =         127.8531

          OUT:                                     OUT:
          ----                                     ----
             STORAGE =        8094.6600               STORAGE =           0.9752
       CONSTANT HEAD =      216569.5903         CONSTANT HEAD =          23.0740
                DCDT =      831784.1346                  DCDT =         103.8039

           TOTAL OUT =     1056448.3848             TOTAL OUT =         127.8531

            IN - OUT =      -8.0128E-04              IN - OUT =      -2.7128E-07

 PERCENT DISCREPANCY =          -0.00     PERCENT DISCREPANCY =          -0.00



0


          TIME SUMMARY AT END OF TRANSPORT STEP    4 IN TIME STEP  720 IN STRESS PERIOD   1
                    SECONDS     MINUTES      HOURS       DAYS        YEARS
                    -----------------------------------------------------------
  TRANS STEP LENGTH 1.32054E+05  2200.9      36.682      1.5284     4.18453E-03
   TIME STEP LENGTH 8.64000E+05  14400.      240.00     10.0000     2.73785E-02
 STRESS PERIOD TIME 6.22080E+08 1.03680E+07 1.72800E+05  7200.0      19.713    
         TOTAL TIME 6.22080E+08 1.03680E+07 1.72800E+05  7200.0      19.713    
1
